96

S    17.42000008   1.63000000  57.68000031
C    20.03999901   2.05999994  56.88999939
C    18.81000137   1.52999997  56.59000015
C    18.52000046   1.08999991  55.26000214
C    19.50000000   0.97000003  54.29000092
C    20.81000137   1.41000009  54.61999893
C    21.90000153   1.18000007  53.74000168
C    23.13999939   1.67999995  54.08000183
C    23.38999939   2.34999990  55.31000137
C    22.34000015   2.54999995  56.18000031
C    21.05999947   1.99000001  55.90999985
C    17.06999969   1.04999995  55.12000275
C    16.35000038   1.41000009  56.27999878
C    14.96000099   1.54999995  56.33999634
C    24.79000092   2.75999999  55.70000076
H    25.31682968   1.98399234  56.25530624
H    20.17999840   2.38000011  57.91999817
H    19.25000000   0.46000001  53.36000061
H    21.75000000   0.64999998  52.80000305
H    24.01000023   1.43999994  53.47000122
H    22.43999863   3.01999998  57.15999985
H    14.42999935   1.77999997  57.25999832
H    25.39999962   2.94999981  54.80999756
H    24.72999954   3.71000004  56.25000000
S    13.83999920   0.32000002  52.72999573
C    11.13999939   0.34000003  53.43999863
C    12.43999958   0.64000005  53.76999664
C    12.79000092   1.15999997  55.06000137
C    11.78999996   1.44999993  55.97000122
C    10.46000004   1.08999991  55.63999939
C     9.39000034   1.28000009  56.56000137
C     8.14000034   0.78000003  56.32999802
C     7.78999996   0.20999999  55.07999802
C     8.73999977   0.17000002  54.08000183
C    10.07999992   0.56999999  54.34999847
C    14.23999977   1.21000004  55.19000244
C    14.93999958   0.83999997  54.02000046
C    16.32999992   0.76999998  53.95999908
C     6.38000011  -0.28000000  54.84000397
H     5.88798046   0.30471924  54.06275177
H    10.93000031  -0.37000000  52.63999939
H    11.89000034   1.87000012  56.97000122
H     9.75000000   1.63000000  57.52999878
H     7.40000010   0.74000001  57.12999725
H     8.52999973  -0.41000003  53.18999863
H    16.77000046   0.35999998  53.04999924
H     5.80999947  -0.34000003  55.77999878
H     6.38999987  -1.25000000  54.31999969
S    17.64000130   2.56000018  51.46999741
C    20.34000015   2.33999991  50.94999695
C    19.06999969   1.93000007  50.61999893
C    18.70000076   1.25000000  49.40999985
C    19.78999901   0.97000003  48.61999893
C    21.11999893   1.33000004  48.93000031
C    22.20000076   0.90999997  48.09999847
C    23.44000053   1.42000008  48.39000320
C    23.78999901   2.17999983  49.52999878
C    22.77000046   2.53999996  50.38000107
C    21.44000053   2.11999989  50.08999634
C    17.26000023   1.16999996  49.18000031
C    16.59000015   1.81999993  50.25000000
C    15.21000004   1.99000001  50.21999741
C    25.20000076   2.73999977  49.59999847
H    25.78568649   2.21859670  50.35710526
H    20.42000008   2.94000006  51.84999847
H    19.55999947   0.54000002  47.63999939
H    21.97999954   0.35999998  47.18000031
H    24.33000183   1.33000004  47.77000046
H    22.92000008   3.15000010  51.26999664
H    14.70000076   2.38999987  51.09000397
H    25.62999916   2.56999993  48.60000229
H    25.15000153   3.81999993  49.75999832
S    14.01000023   0.52999997  46.79000092
C    11.32999992   0.32000002  47.55000305
C    12.61999989   0.65999997  47.88000107
C    13.01000023   1.23000002  49.13000107
C    12.05000019   1.64000010  50.02999878
C    10.69000053   1.43000007  49.68999863
C     9.64999962   1.70000005  50.61999893
C     8.38000011   1.26999998  50.34000015
C     8.01999950   0.63000000  49.12000275
C     9.01000023   0.31000000  48.22000122
C    10.34999943   0.69999999  48.50000000
C    14.45000076   1.47000003  49.16999817
C    15.17000008   1.00999999  48.04000092
C    16.54999924   0.81000000  48.02999878
C     6.63000011   0.02000000  49.01000214
H     6.05825567   0.51312947  48.22385406
H    11.13000011  -0.24000001  46.63000107
H    12.35999966   2.07999992  50.97999954
H     9.98999977   2.04999995  51.59999847
H     7.65999985   1.25000000  51.14999771
H     8.84000015  -0.35999998  47.37999725
H    17.05000114   0.27000001  47.22999954
H     6.05999994  -0.08000001  49.93999863
H     6.85999966  -0.99000001  48.66000366
