96

S    17.30999947   1.53999996  57.83000183
C    19.98999977   1.86000001  57.22000122
C    18.75000000   1.43999994  56.79999924
C    18.38999939   0.93999994  55.51000214
C    19.40999985   0.79999995  54.59000015
C    20.72000122   1.13999999  55.00000000
C    21.80999947   0.94999999  54.09999847
C    23.11000061   1.24000001  54.43000031
C    23.48999977   1.77999997  55.68999863
C    22.42000198   1.99000001  56.52999878
C    21.04999924   1.70000005  56.27999878
C    16.95000076   0.79000002  55.34000015
C    16.21000099   1.08999991  56.51000214
C    14.82999992   1.05999994  56.59999847
C    24.89999962   2.19000006  56.04999924
H    25.28464699   1.70562744  56.94751358
H    20.17000008   2.23000002  58.22000122
H    19.23999977   0.50000000  53.55999756
H    21.68999863   0.48000002  53.13000107
H    23.88000107   1.08000004  53.68999863
H    22.49000168   2.48000002  57.50000000
H    14.34999943   1.36000013  57.52999878
H    25.55999947   1.94999993  55.20999908
H    24.96000099   3.26999998  56.23000336
S    13.76000023   0.09999999  52.83000183
C    11.03999996  -0.17999999  53.63999939
C    12.35000038   0.14000000  53.89999771
C    12.69999981   0.56000000  55.21999741
C    11.76000023   0.75000000  56.22000122
C    10.40999985   0.44000000  55.94999695
C     9.39000034   0.50999999  56.95000076
C     8.10000038   0.14999999  56.65000153
C     7.76000023  -0.25000000  55.33000183
C     8.69000053  -0.32000002  54.31999969
C    10.03000069   0.05000000  54.61000061
C    14.13000011   0.73000002  55.43000031
C    14.80000019   0.48000002  54.20999908
C    16.18999863   0.39000002  54.22999954
C     6.38000011  -0.79000002  55.00999832
H     5.83903503  -0.12802964  54.33379364
H    10.78999996  -0.76999998  52.76000214
H    11.95000076   1.05999994  57.23999786
H     9.76000023   0.59999996  57.97000122
H     7.53000021   0.09999999  57.56999969
H     8.47000027  -0.81000000  53.37999725
H    16.72000122   0.13000000  53.31999969
H     5.82000017  -0.86000001  55.94999695
H     6.46000004  -1.81999993  54.65999985
S    14.44000053  -1.87999988  50.10000229
C    11.84999943  -2.53999996  50.63999939
C    13.15999985  -2.72000027  51.00000000
C    13.63000011  -3.35000014  52.19999695
C    12.65999985  -3.81000018  53.08000183
C    11.28999901  -3.65999985  52.76000214
C    10.26999950  -4.02999973  53.68000031
C     8.94999981  -3.84999990  53.31999969
C     8.52000046  -3.22000003  52.11999893
C     9.48999977  -2.89000010  51.19999695
C    10.86999989  -3.05999994  51.52000046
C    15.03999901  -3.03999996  52.37999725
C    15.65000057  -2.28999996  51.33999634
C    16.98999977  -1.92000008  51.26999664
C     7.07000017  -2.82999992  51.93999863
H     6.59219933  -3.34345722  51.10563278
H    11.51000023  -1.90999997  49.81999969
H    12.97000027  -4.25000000  54.02000046
H    10.42000008  -4.51999998  54.62999725
H     8.23999977  -4.03999996  54.10999680
H     9.27999973  -2.28999996  50.31999969
H    17.38000107  -1.31999993  50.45999908
H     6.43000031  -2.86999989  52.83000183
H     7.09000015  -1.75999999  51.70999908
S    18.38999939  -3.53999996  54.64000320
C    21.02000046  -2.94999981  53.93000031
C    19.67000008  -2.79999995  53.66000366
C    19.20999908  -2.13000011  52.49000168
C    20.09000015  -1.63000000  51.55000305
C    21.47000122  -1.66999996  51.84000015
C    22.42000198  -1.19000006  50.89000320
C    23.77000046  -1.42000008  51.00000000
C    24.20999908  -1.87000012  52.27000427
C    23.32999992  -2.38000011  53.20000076
C    21.91999817  -2.27999997  53.06999969
C    17.76000023  -2.24000001  52.38999939
C    17.18000031  -2.96000004  53.47000122
C    15.84000015  -3.35000014  53.47999954
C    25.68000031  -2.19000006  52.43999863
H    25.97974586  -1.89738989  53.44629669
H    21.28000069  -3.68999982  54.68000031
H    19.75000000  -1.04999995  50.68999863
H    21.94999886  -0.64000005  50.06999969
H    24.34999847  -1.16999996  50.12000275
H    23.67000198  -3.08999991  53.95000076
H    15.48999977  -3.94000006  54.31999969
H    26.09999847  -1.52999997  51.65999985
H    25.79000092  -3.25999999  52.23999786
