96

S    17.20000076   2.19000006  57.71999741
C    19.88000107   2.31999993  56.93000031
C    18.60000038   1.88999999  56.68000031
C    18.25000000   1.15999997  55.50000000
C    19.25000000   0.76999998  54.62999725
C    20.59000015   1.13999999  54.91000366
C    21.70000076   0.90999997  54.03999710
C    23.00000000   1.30999994  54.22000122
C    23.32999992   1.99000001  55.43000031
C    22.27999878   2.33999991  56.24000168
C    20.93000031   1.92000008  56.06999969
C    16.79999924   1.05999994  55.34000015
C    16.10999870   1.52999997  56.49000168
C    14.73000050   1.75000000  56.51000214
C    24.75000000   2.44000006  55.72999954
H    25.30427933   1.64411175  56.22742844
H    20.00000000   3.07999992  57.70000076
H    19.13999939   0.24000001  53.68999863
H    21.50000000   0.38000000  53.11000061
H    23.65999985   1.16999996  53.37999725
H    22.49000168   2.96999979  57.09999847
H    14.37999916   2.23000002  57.41000366
H    25.17999840   2.91000009  54.84000397
H    24.63000107   3.35000014  56.31999969
S    13.55000019   0.34000003  52.95999908
C    10.88999939   0.11000000  53.72000122
C    12.15999985   0.51999998  54.05000305
C    12.55000019   1.12000000  55.28999710
C    11.56999969   1.31999993  56.25000000
C    10.22999954   1.01999998  55.90999985
C     9.15000057   1.25000000  56.81000137
C     7.82999992   1.07000005  56.47999573
C     7.49000025   0.41000003  55.27999878
C     8.48999977   0.22000000  54.34999847
C     9.86999989   0.44000000  54.65000153
C    13.99000072   1.28000009  55.41999817
C    14.67000008   0.88999999  54.22999954
C    16.04999924   0.76999998  54.20000076
C     6.06999969   0.00000000  54.93999863
H     5.71360779   0.58448321  54.09178543
H    10.62999916  -0.41999999  52.80000305
H    11.87000084   1.72000003  57.22000122
H     9.42000008   1.69000006  57.77000046
H     7.07000017   1.24000001  57.23999786
H     8.26000023  -0.28000000  53.41999817
H    16.51000023   0.41000003  53.29000092
H     5.44000053   0.12000000  55.83000183
H     5.97000027  -1.05999994  54.68999863
S    17.88999939   2.30999994  51.70000076
C    20.56999969   2.40999985  51.03000259
C    19.31999969   1.93000007  50.72999954
C    18.93000031   1.39999998  49.45999908
C    19.93999863   1.25999999  48.52000427
C    21.28000069   1.65000010  48.77999878
C    22.40999985   1.39999998  47.95000076
C    23.71999931   1.64000010  48.27000046
C    23.97999954   2.29999995  49.50000000
C    22.93999863   2.59000015  50.35999680
C    21.59000015   2.23000002  50.06000137
C    17.48999977   1.36000013  49.29000092
C    16.76000023   1.76999998  50.44000244
C    15.38000011   1.90999997  50.50000000
C    25.38000107   2.66999984  49.91000366
H    25.80829430   2.05611253  50.70234680
H    20.68000031   3.02999997  51.90999985
H    19.81999969   0.68000007  47.62000275
H    22.19000053   0.88000000  47.02000046
H    24.43000031   1.35000002  47.50000000
H    23.12999916   2.94000006  51.37000275
H    14.96000099   2.21000004  51.45999908
H    26.02999878   2.63999987  49.02000046
H    25.34000015   3.70000005  50.28999710
S    14.21000004   0.93000001  46.81999969
C    11.49000072   0.96000004  47.39999771
C    12.77999973   1.12000000  47.84999847
C    13.17000008   1.47000003  49.19000244
C    12.11999989   1.50999999  50.08999634
C    10.77000046   1.28999996  49.72999954
C     9.72999954   1.29999995  50.70000076
C     8.43999958   1.05999994  50.31000137
C     8.18000031   0.68000007  48.95999908
C     9.13999939   0.59999996  47.97999954
C    10.44999981   0.99000001  48.36000061
C    14.60000038   1.62000000  49.36999893
C    15.29000092   1.19999993  48.20999908
C    16.67000008   1.01999998  48.20999908
C     6.81999969   0.14000000  48.59000397
H     6.42053413   0.66073179  47.71973801
H    11.31999969   0.81000000  46.33999634
H    12.23999977   1.70000005  51.16000366
H     9.98000050   1.54999995  51.72999954
H     7.63999987   1.10000002  51.04000092
H     8.93000031   0.24000001  46.97000122
H    17.15999985   0.81000000  47.25999832
H     6.17999983   0.25000000  49.47999954
H     6.90999985  -0.92000002  48.30999756
