96

S    17.56000137   2.28999996  57.64999771
C    20.28000069   2.46000004  57.01000214
C    19.01000023   2.06999993  56.65999985
C    18.68999863   1.47000003  55.40000153
C    19.70999908   1.35000002  54.47000122
C    21.02999878   1.77999997  54.72999954
C    22.07999992   1.66999996  53.77999878
C    23.36999893   2.01999998  54.12000275
C    23.68000031   2.56000018  55.38999939
C    22.63999939   2.75999999  56.26999664
C    21.30000114   2.36000013  56.02000427
C    17.26000023   1.23000002  55.28999710
C    16.47999954   1.70000005  56.37000275
C    15.08999920   1.72000003  56.39999771
C    25.10999870   2.84999990  55.79000092
H    25.56417465   2.06938553  56.40029907
H    20.36000061   2.98000002  57.95999908
H    19.59000015   0.83999997  53.52000427
H    21.73999977   1.35000002  52.80000305
H    24.23999977   1.94999993  53.47000122
H    22.86999893   2.96000004  57.31999969
H    14.56999969   1.93000007  57.32999802
H    25.61000061   3.07000017  54.84000397
H    25.27000046   3.81999993  56.26999664
S    14.09000015   0.41999999  52.81000137
C    11.31000042   0.25000000  53.47000122
C    12.61999989   0.56999999  53.79000092
C    12.96000004   1.13000000  55.06000137
C    11.96000004   1.34000003  55.98999786
C    10.60999966   0.97999996  55.72000122
C     9.52000046   1.35000002  56.55000305
C     8.23000050   1.01999998  56.20999908
C     7.96000004   0.34999999  54.99000168
C     8.96000004   0.08000001  54.09000015
C    10.31000042   0.37000000  54.45999908
C    14.37999916   1.35000002  55.25000000
C    15.14999962   0.90999997  54.13999939
C    16.54000092   0.76999998  54.18000031
C     6.58999968  -0.17999999  54.64000320
H     6.06204367   0.50491601  53.97648621
H    11.17000008  -0.03000000  52.43000031
H    12.27000046   1.76999998  56.93999863
H     9.75000000   1.94999993  57.43000031
H     7.37999964   1.25000000  56.86000061
H     8.82000065  -0.34999999  53.09999847
H    16.95999908   0.31000000  53.29999924
H     5.97000027  -0.51999998  55.48999786
H     6.74000025  -1.14999998  54.15000153
S    14.34000015  -1.62000000  49.93999863
C    11.69999981  -2.31999993  50.63999939
C    13.04999924  -2.31999993  50.93000031
C    13.50999928  -2.94999981  52.12999725
C    12.61999989  -3.37000012  53.09999847
C    11.23000050  -3.30000019  52.84000015
C    10.29000092  -3.73000002  53.81000137
C     8.93999958  -3.61999989  53.56999969
C     8.47999954  -3.21000004  52.29000092
C     9.35000038  -2.72000027  51.33999634
C    10.75000000  -2.77999997  51.58000183
C    14.96000099  -2.91000009  52.19999695
C    15.53999996  -2.16999984  51.13999939
C    16.87999916  -1.80000007  51.16000366
C     7.05999947  -3.54999995  51.88999939
H     6.70445061  -3.09489703  50.96557236
H    11.33999920  -1.74000001  49.79000092
H    12.98999977  -3.67000008  54.08000183
H    10.60999966  -4.18000031  54.73999786
H     8.26000023  -4.02999973  54.31000137
H     9.15000057  -2.24000001  50.38000107
H    17.27000046  -1.13000000  50.40999985
H     6.98999977  -4.63000011  51.72000122
H     6.40999985  -3.28999996  52.72999573
S    18.35000038  -3.37000012  54.47999954
C    20.93000031  -2.50999975  53.93000031
C    19.60000038  -2.49000001  53.56999969
C    19.09000015  -2.00999999  52.31999969
C    19.92000008  -1.29999995  51.47999573
C    21.30000114  -1.25999999  51.81000137
C    22.22999954  -0.63000000  50.93999863
C    23.55999947  -0.62000000  51.27999878
C    24.04999924  -1.47000003  52.30999756
C    23.19999886  -2.00000000  53.25000000
C    21.80999947  -1.93000007  52.97999954
C    17.67000008  -2.29999995  52.21000290
C    17.09000015  -3.05999994  53.26000214
C    15.73999977  -3.35999990  53.27000046
C    25.53999901  -1.71000004  52.43000031
H    25.93887711  -1.48919261  53.42007065
H    21.31000137  -3.19999981  54.68000031
H    19.54000092  -0.88999999  50.54999924
H    21.86000061   0.05000000  50.18000031
H    24.27000046  -0.12000000  50.63000107
H    23.54000092  -2.47000003  54.16999817
H    15.19000053  -3.82999992  54.09000015
H    26.04000092  -1.36999989  51.51000214
H    25.84000015  -2.73999977  52.25000000
