96

S    17.35000038   2.00999999  57.54000092
C    20.10999870   1.76999998  56.98999786
C    18.81000137   1.50000000  56.65999985
C    18.42000008   0.79000002  55.47999954
C    19.42000008   0.51999998  54.56999969
C    20.72999954   1.01999998  54.75999832
C    21.78999901   0.87000000  53.81999969
C    23.09999847   1.19000006  54.06000137
C    23.47999954   1.62000000  55.35999680
C    22.50999832   1.81999993  56.31000137
C    21.14000130   1.52999997  56.04999924
C    16.98999977   0.88000000  55.19000244
C    16.26000023   1.47000003  56.25999832
C    14.88999939   1.66999996  56.25000000
C    24.84999847   2.14000010  55.73999786
H    25.26280594   1.59196532  56.58696365
H    20.43000031   2.25000000  57.91999817
H    19.23999977   0.02000000  53.61999893
H    21.45000076   0.55000001  52.84000015
H    23.87000084   1.12000000  53.29000092
H    22.72999954   2.16000009  57.31999969
H    14.32999992   2.16000009  57.04000092
H    25.48999977   1.93000007  54.86999893
H    24.84000015   3.23000002  55.83000183
S    13.83999920   0.12000000  52.77000046
C    11.13000011   0.14000000  53.40999985
C    12.39999962   0.55000001  53.72000122
C    12.75000000   1.15999997  54.97000122
C    11.77000046   1.38999999  55.90999985
C    10.44000053   0.97999996  55.65000153
C     9.40999985   1.21000004  56.60999680
C     8.10000038   0.88999999  56.31999969
C     7.82999992   0.16000001  55.13999939
C     8.76000023   0.05000000  54.13999939
C    10.11999989   0.41000003  54.36999893
C    14.19999981   1.28000009  55.08999634
C    14.93999958   0.75000000  54.01000214
C    16.31999969   0.56000000  54.01000214
C     6.42000008  -0.32000002  54.86000061
H     5.86550856   0.39799568  54.25574875
H    10.92000008  -0.54000002  52.57999802
H    12.01000023   1.87999988  56.84999847
H     9.75000000   1.54999995  57.58999634
H     7.36000013   0.96000004  57.11999893
H     8.43000031  -0.25000000  53.15000153
H    16.88999939   0.08000001  53.22000122
H     5.82000017  -0.41000003  55.77000046
H     6.50000000  -1.33000004  54.45000076
S    17.86000061   2.36000013  51.77999878
C    20.56999969   2.63000011  51.16000366
C    19.30999947   2.23000002  50.76000214
C    18.97999954   1.64000010  49.50000000
C    20.06000137   1.38999999  48.67000198
C    21.35999870   1.84000003  48.96999741
C    22.46000099   1.86000001  48.06999969
C    23.74000168   2.21000004  48.40999985
C    23.98999977   2.82000017  49.66999817
C    22.95999908   2.86999989  50.58000183
C    21.63000107   2.48000002  50.22999573
C    17.53999901   1.57000005  49.27999878
C    16.81999969   2.14000010  50.35999680
C    15.44999981   2.33999991  50.28999710
C    25.39999962   3.21000004  50.06999969
H    25.97703362   2.47624111  50.63278580
H    20.72000122   3.12000012  52.11000061
H    19.90999985   1.13000000  47.62000275
H    22.26000023   1.57000005  47.04000092
H    24.56999969   2.16000009  47.70999908
H    23.12000084   3.32999992  51.55000305
H    14.88000011   2.32999992  51.20999908
H    25.92000008   3.52999973  49.15999985
H    25.29000092   4.17000008  50.59000015
S    14.48999977   0.93999994  46.70000076
C    11.85999966   0.51999998  47.47000122
C    13.07999992   1.05999994  47.77999878
C    13.34000015   1.72000003  49.02000046
C    12.28999996   1.84000003  49.91000366
C    10.98999977   1.33000004  49.66999817
C     9.92000008   1.30999994  50.59999847
C     8.69999981   0.74000001  50.33000183
C     8.47000027   0.23000000  49.02000046
C     9.51000023   0.12000000  48.13999939
C    10.80000019   0.65999997  48.40999985
C    14.77000046   1.98000002  49.10999680
C    15.52999973   1.46000004  48.04000092
C    16.87999916   1.12000000  48.13000107
C     7.11000013  -0.29999998  48.60000229
H     6.64570665   0.20000848  47.74998856
H    11.67000008  -0.09000000  46.59000015
H    12.60000038   2.26999998  50.86000061
H    10.03999901   1.72999990  51.59999847
H     8.00000000   0.69999999  51.16000366
H     9.40999985  -0.46999997  47.22999954
H    17.31999969   0.75000000  47.21000290
H     6.44999981  -0.19000000  49.47999954
H     7.09999990  -1.38999999  48.56999969
