96

S    17.46999931   2.01999998  57.50999832
C    20.17000008   2.19000006  56.81000137
C    18.89999962   1.80000007  56.47999573
C    18.48999977   1.35000002  55.18000031
C    19.48999977   1.08999991  54.27000046
C    20.84000015   1.38000000  54.56999969
C    21.86000061   1.34000003  53.56999969
C    23.19000053   1.51999998  53.81999969
C    23.52999878   2.01999998  55.10000229
C    22.53999901   2.32999992  56.02000427
C    21.18999863   1.93000007  55.84999847
C    17.04000092   1.28999996  55.00999832
C    16.34000015   1.62000000  56.18999863
C    14.96999931   1.75999999  56.30000305
C    24.94999886   2.42000008  55.40000153
H    25.40672874   1.79913282  56.17073059
H    20.46999931   2.66000009  57.74000168
H    19.37000084   0.54000002  53.34000015
H    21.54000092   1.07000005  52.56000137
H    24.03000069   1.28000009  53.16999817
H    22.76000023   2.82999992  56.95999908
H    14.45000076   2.16000009  57.16999817
H    25.55000114   2.32999992  54.47999954
H    24.96000099   3.45000005  55.79000092
S    13.90999985   0.41000003  52.71999741
C    11.21999931   0.50999999  53.34000015
C    12.51000023   0.79999995  53.74000168
C    12.81999969   1.28999996  55.05000305
C    11.80999947   1.49000001  55.96000290
C    10.46000004   1.28000009  55.58000183
C     9.35999966   1.61000001  56.42000198
C     8.03999996   1.41000009  56.11000061
C     7.78999996   0.82000005  54.85000229
C     8.80999947   0.50000000  53.97999573
C    10.18000031   0.73000002  54.27999878
C    14.27000046   1.38999999  55.14999771
C    14.98999977   1.04999995  53.96999741
C    16.36000061   0.93000001  53.82999802
C     6.38999987   0.39000002  54.48999786
H     5.97740459   0.86661828  53.60078430
H    10.95999908   0.20999999  52.32999802
H    12.02999973   1.75999999  56.98999786
H     9.68000031   1.94000006  57.41000366
H     7.30000019   1.65000010  56.86999893
H     8.61999989   0.03000000  53.02000046
H    16.77999878   0.69000000  52.85999680
H     5.82999992   0.69000000  55.38999939
H     6.30999994  -0.69999999  54.55999756
S    17.85000038   2.86000013  51.77999878
C    20.52999878   2.82999992  51.06999969
C    19.26000023   2.34999990  50.84000015
C    18.95000076   1.74000001  49.58000183
C    19.92000008   1.39999998  48.64999771
C    21.24000168   1.87000012  48.88999939
C    22.27999878   1.79000008  47.91999817
C    23.54000092   2.24000001  48.22999954
C    23.90999985   2.73000002  49.51000214
C    22.88999939   2.89999986  50.41999817
C    21.54999924   2.52999997  50.12000275
C    17.51000023   1.76999998  49.34999847
C    16.80999947   2.36000013  50.43000031
C    15.43000031   2.51999998  50.35999680
C    25.35000038   3.02999997  49.86000061
H    25.81805229   2.23573041  50.44152069
H    20.85000038   3.19000006  52.04000092
H    19.63999939   1.05999994  47.65999603
H    21.97000122   1.50000000  46.90999985
H    24.34999847   2.40999985  47.52999878
H    23.12000084   3.21000004  51.44000244
H    14.80000019   2.75999999  51.20999908
H    25.90999985   3.32999992  48.96999741
H    25.26000023   3.91000009  50.50000000
S    14.45000076   0.71000004  46.91999817
C    11.71000004   0.75999999  47.50000000
C    12.98999977   1.05999994  47.88000107
C    13.31999969   1.80000007  49.06000137
C    12.30000019   2.10999990  49.93999863
C    10.97000027   1.70000005  49.69999695
C     9.85999966   1.94999993  50.56000137
C     8.60000038   1.50000000  50.27999878
C     8.30999947   0.67000002  49.15999985
C     9.36999989   0.55000001  48.30999756
C    10.69000053   1.07000005  48.43999863
C    14.75000000   2.05999994  49.22999954
C    15.46000004   1.39999998  48.20000076
C    16.84999847   1.33000004  48.20000076
C     6.89000034   0.28000000  48.80000305
H     6.48364496   0.93587160  48.03006363
H    11.56000042   0.25000000  46.53999710
H    12.48999977   2.64999986  50.86999893
H    10.10000038   2.45000005  51.50000000
H     7.82000017   1.72999990  51.00999832
H     9.13000011   0.02000000  47.38999939
H    17.45000076   1.05999994  47.32999802
H     6.38000011   0.25000000  49.77000427
H     7.00000000  -0.75000000  48.43000031
