96

S    17.70000076   1.52999997  57.77999878
C    20.43000031   1.72999990  57.19999695
C    19.17000008   1.38999999  56.79000092
C    18.86000061   0.93999994  55.45999908
C    19.88999939   0.82000005  54.54000092
C    21.21999931   1.10000002  54.93000031
C    22.36000061   0.92000002  54.09999847
C    23.61999893   1.29999995  54.51000214
C    23.85999870   1.75000000  55.83000183
C    22.79999924   1.88999999  56.70000076
C    21.47999954   1.57000005  56.25999832
C    17.43000031   0.79000002  55.25000000
C    16.65999985   1.13000000  56.39999771
C    15.29000092   1.34000003  56.40999603
C    25.26000023   2.23000002  56.12999725
H    25.85664940   1.53390861  56.71954727
H    20.66999817   2.44000006  57.98999786
H    19.71999931   0.46999997  53.53000259
H    22.27999878   0.62000000  53.06000137
H    24.36000061   1.43999994  53.72000122
H    22.88999939   2.42000008  57.63999939
H    14.75000000   1.51999998  57.34000397
H    25.81999969   2.37000012  55.19000244
H    25.34000015   3.22000003  56.59999847
S    14.32000065   0.25000000  52.70000076
C    11.56999969   0.19000000  53.29999924
C    12.86000061   0.45000002  53.69999695
C    13.20000076   0.96000004  54.99000168
C    12.23000050   1.19000006  55.93999863
C    10.88999939   0.93000001  55.54999924
C     9.84000015   1.01999998  56.51000214
C     8.55000019   0.74000001  56.12999725
C     8.27000046   0.28999999  54.80999756
C     9.19000053   0.29999998  53.79000092
C    10.52999973   0.46999997  54.22999954
C    14.63999939   1.10000002  55.20000076
C    15.38000011   0.71000004  54.05000305
C    16.76000023   0.59000003  54.03999710
C     6.88000011  -0.23000000  54.54999924
H     6.23103333   0.46888739  54.02227020
H    11.21999931  -0.17000002  52.34000397
H    12.56000042   1.36000013  56.95999908
H    10.11000061   1.31999993  57.51999664
H     7.73000002   0.79000002  56.84999847
H     8.97000027   0.08000001  52.75000000
H    17.29999924   0.20999999  53.18000031
H     6.42000008  -0.59000003  55.47999954
H     7.03999996  -1.05999994  53.85000229
S    14.29999924  -1.84000003  49.80999756
C    11.64999962  -2.26999998  50.58000183
C    12.98999977  -2.42000008  50.86000061
C    13.48000050  -3.07000017  52.04000092
C    12.61999989  -3.63999987  52.95000076
C    11.23000050  -3.40000010  52.78999710
C    10.31000042  -3.95000005  53.73000336
C     8.96000004  -3.86999989  53.48999786
C     8.48999977  -3.40000010  52.22999954
C     9.39000034  -2.94999981  51.29000092
C    10.77999973  -2.79000020  51.56999969
C    14.93000031  -2.96000004  52.18000031
C    15.47999954  -2.26999998  51.05999756
C    16.79999924  -1.86000001  51.13999939
C     7.00999975  -3.55999994  51.93999863
H     6.73837423  -3.22404146  50.93927383
H    11.26000023  -1.80000007  49.68000031
H    12.93000031  -4.15999985  53.86000061
H    10.62999916  -4.42999983  54.65000153
H     8.28999996  -4.26000023  54.25000000
H     9.02999973  -2.56000018  50.34000015
H    17.23999977  -1.34000003  50.28999710
H     6.90999985  -4.63999987  52.09999847
H     6.40999985  -2.98000002  52.65999603
S    18.18000031  -3.45000005  54.56999969
C    20.82999992  -2.84000015  53.89999771
C    19.48999977  -2.79000020  53.57999802
C    19.04999924  -2.16999984  52.36999893
C    19.93999863  -1.61000001  51.47999573
C    21.31999969  -1.70000005  51.79000092
C    22.20999908  -0.99000001  50.93999863
C    23.54999924  -0.88000000  51.25000000
C    24.04000092  -1.50000000  52.43000031
C    23.19999886  -2.24000001  53.22999954
C    21.80000114  -2.36000013  52.97999954
C    17.60000038  -2.25000000  52.22000122
C    17.05999947  -3.05000019  53.26000214
C    15.70000076  -3.35000014  53.27999878
C    25.45999908  -1.24000001  52.87000275
H    25.84414864  -1.80910897  53.71655273
H    21.18999863  -3.12999988  54.87999725
H    19.67000008  -1.02999997  50.59999847
H    21.68999863  -0.41999999  50.18000031
H    24.18000031  -0.32999998  50.54999924
H    23.51000023  -2.66999984  54.18000031
H    15.26000023  -3.91999984  54.09000015
H    25.51000214  -0.17999999  53.15000153
H    26.17000198  -1.48000002  52.06999969
