96

S    17.54999924   2.22000003  57.70000076
C    20.22000122   2.24000001  56.97999954
C    18.94000053   1.80000007  56.69000244
C    18.53000069   1.11000001  55.50000000
C    19.52000046   1.00000000  54.54000092
C    20.86999893   1.35000002  54.79999924
C    21.87000084   1.01999998  53.85000229
C    23.16999817   1.41000009  54.06000137
C    23.52999878   2.20000005  55.19000244
C    22.53999901   2.57999992  56.05999756
C    21.25000000   1.97000003  56.04999924
C    17.07999992   1.08000004  55.37000275
C    16.39999962   1.66999996  56.45999908
C    15.01999950   1.85000002  56.52000046
C    24.92000198   2.73000002  55.45000076
H    25.41815186   2.10375381  56.19010925
H    20.38000107   2.92000008  57.81000137
H    19.18000031   0.55000001  53.61000061
H    21.54999924   0.61000001  52.90000153
H    23.90000153   1.04999995  53.34000015
H    22.81999969   3.33999991  56.79000092
H    14.55000019   2.01999998  57.49000168
H    25.52999878   2.75999999  54.54999924
H    24.82999992   3.78999996  55.75000000
S    13.86999989   0.65999997  52.87000275
C    11.18000031   0.56000000  53.67000198
C    12.46999931   0.97999996  53.90999603
C    12.84000015   1.44999993  55.21999741
C    11.85999966   1.72999990  56.14999771
C    10.50000000   1.50000000  55.86000061
C     9.47000027   1.76999998  56.81000137
C     8.18000031   1.38999999  56.52999878
C     7.85000038   0.64999998  55.35999680
C     8.80999947   0.51999998  54.38000107
C    10.17000008   0.86000001  54.61000061
C    14.28999996   1.51999998  55.38000107
C    14.94999981   0.97999996  54.23999786
C    16.29999924   0.69000000  54.27999878
C     6.44000006   0.11000000  55.25000000
H     5.88644981   0.64225990  54.47644806
H    10.98999977  -0.02000000  52.77000046
H    12.07999992   1.98000002  57.18999863
H     9.71000004   2.15000010  57.80000305
H     7.42000008   1.61000001  57.27000427
H     8.67999935  -0.07000000  53.47000122
H    16.82999992   0.28000000  53.41999817
H     5.89999962   0.17000002  56.19999695
H     6.44000006  -0.94999999  54.98000336
S    14.34000015  -1.49000001  50.20999908
C    11.72999954  -2.09999990  50.84000015
C    13.04999924  -2.23000002  51.18000031
C    13.52000046  -2.82000017  52.39999771
C    12.56000042  -3.33999991  53.25000000
C    11.17000008  -3.21000004  52.98999786
C    10.19999981  -3.68999982  53.90999603
C     8.85000038  -3.50000000  53.73000336
C     8.46000004  -2.82000017  52.55000305
C     9.36999989  -2.29999995  51.65000153
C    10.77000046  -2.48000002  51.81999969
C    14.96999931  -2.75000000  52.52999878
C    15.48999977  -1.98000002  51.46999741
C    16.79999924  -1.50999999  51.40999603
C     7.03000021  -2.38999987  52.30999756
H     6.57398415  -3.03839779  51.56184769
H    11.44999981  -1.54999995  49.94999695
H    12.74000072  -3.88000011  54.16999817
H    10.47000027  -4.23000002  54.80999756
H     8.21000004  -3.88999987  54.51000214
H     9.10000038  -1.76999998  50.73999786
H    17.14999962  -0.79999995  50.65999985
H     6.38999987  -2.39999986  53.18999863
H     7.11000013  -1.36999989  51.90999985
S    18.44000053  -3.25999999  54.61999893
C    21.05999947  -2.66000009  53.82999802
C    19.70000076  -2.50000000  53.62999725
C    19.11000061  -1.89999998  52.48000336
C    19.96999931  -1.39999998  51.51000214
C    21.37000084  -1.54999995  51.66999817
C    22.32999992  -0.97999996  50.77999878
C    23.68999863  -1.15999997  50.90999985
C    24.20000076  -1.67999995  52.12999725
C    23.35000038  -2.28999996  53.02000046
C    21.94000053  -2.14000010  52.84999847
C    17.65999985  -1.95999992  52.42000198
C    17.18000031  -2.79000020  53.46000290
C    15.85000038  -3.17999983  53.53000259
C    25.69000053  -1.58000004  52.36000061
H    26.05970955  -2.14878249  53.21317291
H    21.45000076  -3.35000014  54.56999969
H    19.64999962  -0.90000004  50.61000061
H    21.87999916  -0.32000002  50.04000092
H    24.37000084  -0.69000000  50.20999908
H    23.67000198  -2.84000015  53.89999771
H    15.47000027  -3.77999997  54.36000061
H    25.85000038  -0.50999999  52.52999878
H    26.14999962  -1.94000006  51.43000031
