96

S    17.73999977   1.76999998  57.72999573
C    20.38000107   1.99000001  56.93000031
C    19.10000038   1.62000000  56.59999847
C    18.77000046   1.14999998  55.28999710
C    19.78999901   0.99000001  54.36999893
C    21.09999847   1.50000000  54.58000183
C    22.06999969   1.50999999  53.54000092
C    23.36999893   1.80999994  53.86000061
C    23.68999863   2.24000001  55.18000031
C    22.70000076   2.42000008  56.11999893
C    21.38000107   1.93000007  55.91999817
C    17.31999969   1.10000002  55.18000031
C    16.63999939   1.39999998  56.38999939
C    15.25000000   1.47000003  56.45000076
C    25.09000015   2.72000027  55.45999908
H    25.68757629   1.96591544  55.97220993
H    20.51000214   2.49000001  57.88999939
H    19.62000084   0.46999997  53.43000031
H    21.70000076   1.30999994  52.54000092
H    24.13999939   1.72000003  53.09999847
H    23.02000046   2.79999995  57.09000015
H    14.75999928   1.56000006  57.41000366
H    25.51000214   2.89999986  54.45999908
H    25.06999969   3.61999989  56.09000397
S    14.01000023   0.48000002  52.74000168
C    11.35000038   0.28999999  53.46000290
C    12.63000011   0.56000000  53.85000229
C    13.04999924   0.90999997  55.18000031
C    12.03999996   1.19999993  56.06999969
C    10.72000027   0.75000000  55.81999969
C     9.63999939   0.82000005  56.75000000
C     8.39999962   0.32999998  56.42000198
C     8.07999992  -0.31000000  55.19000244
C     9.03999996  -0.09999999  54.22000122
C    10.38000011   0.28999999  54.50000000
C    14.48999977   1.04999995  55.34999847
C    15.11000061   0.76999998  54.10999680
C    16.50000000   0.75000000  54.09999847
C     6.67000008  -0.75000000  54.88999939
H     6.25191689  -0.16893506  54.06800842
H    11.13000011  -0.04000000  52.44999695
H    12.18000031   1.52999997  57.09999847
H     9.75000000   1.41000009  57.65999603
H     7.59999990   0.45000002  57.12999725
H     8.80999947  -0.45000002  53.22000122
H    17.04000092   0.48000002  53.18999863
H     6.09000015  -0.46999997  55.77000046
H     6.65999985  -1.82999992  54.69999695
S    14.30999947  -1.38999999  50.10000229
C    11.69999981  -2.00999999  50.86999893
C    13.05999947  -2.20000005  51.05999756
C    13.53999996  -2.91000009  52.19999695
C    12.57999992  -3.53999996  52.97000122
C    11.19999981  -3.24000001  52.88000107
C    10.31999969  -3.97000027  53.72000122
C     8.98999977  -4.00999975  53.36000061
C     8.43000031  -3.10999990  52.41000366
C     9.28999996  -2.29999995  51.72000122
C    10.71000004  -2.46000004  51.77000046
C    14.98000050  -2.73000002  52.29999924
C    15.54999924  -2.00000000  51.22000122
C    16.88999939  -1.65000010  51.18999863
C     6.94000006  -3.19000006  52.14000320
H     6.65488672  -3.67469263  51.20625687
H    11.38000011  -1.43000007  50.00999832
H    12.86999893  -4.34999990  53.63999939
H    10.73999977  -4.63999987  54.47000122
H     8.38999939  -4.63999987  54.01000214
H     8.82999992  -1.79000008  50.86999893
H    17.35000038  -1.02999997  50.43000031
H     6.51000023  -3.68000007  53.02999878
H     6.53999996  -2.16999984  52.15000153
S    18.45000076  -3.28999996  54.48999786
C    21.07000160  -2.66999984  53.75000000
C    19.72999954  -2.63999987  53.44999695
C    19.20999908  -2.09000015  52.23999786
C    20.10999870  -1.46000004  51.39999771
C    21.50000000  -1.50000000  51.65999985
C    22.39999962  -0.90999997  50.72999954
C    23.71999931  -0.79999995  51.11000061
C    24.26000214  -1.43999994  52.25999832
C    23.40999985  -2.02999997  53.15999985
C    22.01000023  -2.03999996  52.88999939
C    17.76000023  -2.19000006  52.15000153
C    17.23999977  -2.94000006  53.23999786
C    15.88999939  -3.25000000  53.22999954
C    25.72999954  -1.23000002  52.56000137
H    26.08401489  -1.85306740  53.38131714
H    21.45000076  -3.42000008  54.43000031
H    19.72999954  -0.97000003  50.50000000
H    22.06999969  -0.56000000  49.75000000
H    24.37999916  -0.25999999  50.44000244
H    23.81000137  -2.49000001  54.06999969
H    15.54999924  -3.74000025  54.13999939
H    25.79999924  -0.17000002  52.83000183
H    26.19999886  -1.38000000  51.58000183
