96

S    17.63000107   1.87000012  57.80000305
C    20.29000092   1.54999995  57.11000061
C    18.96999931   1.41000009  56.73999786
C    18.53999901   1.03999996  55.41999817
C    19.52999878   0.94999999  54.47000122
C    20.88999939   1.25000000  54.75999832
C    21.91999817   1.28999996  53.76999664
C    23.22000122   1.58000004  54.09000015
C    23.59000015   2.00999999  55.40000153
C    22.62000084   1.98000002  56.37000275
C    21.28999901   1.52999997  56.11000061
C    17.09000015   1.08000004  55.33000183
C    16.44000053   1.50000000  56.52999878
C    15.06999969   1.66999996  56.59999847
C    25.02000046   2.36000013  55.72999954
H    25.44697762   1.69106925  56.47720718
H    20.45999908   1.97000003  58.09999847
H    19.34000015   0.71999997  53.43000031
H    21.60000038   1.03999996  52.77000046
H    23.92999840   1.54999995  53.27000046
H    22.78000069   2.14000010  57.43000031
H    14.60999966   2.00000000  57.52999878
H    25.69000053   2.33999991  54.86000061
H    24.93999863   3.35999990  56.17000198
S    13.89999962   0.64000005  52.91999817
C    11.23000050   0.48999998  53.54000092
C    12.46999931   0.92000002  53.94000244
C    12.81999969   1.30999994  55.27000046
C    11.77000046   1.47000003  56.16000366
C    10.44000053   1.19000006  55.77000046
C     9.39999962   1.22000003  56.73999786
C     8.10000038   0.93999994  56.40999603
C     7.78999996   0.41999999  55.12000275
C     8.82000065   0.20999999  54.23999786
C    10.14999962   0.65999997  54.45999908
C    14.26000023   1.36999989  55.50000000
C    14.93999958   0.97999996  54.31999969
C    16.31999969   0.85000002  54.19000244
C     6.37000036   0.01000000  54.79999924
H     5.97966862   0.66291869  54.01933289
H    11.13999939  -0.08000001  52.62000275
H    11.94000053   1.57000005  57.22999954
H     9.77000046   1.58000004  57.70000076
H     7.28999996   1.14999998  57.11000061
H     8.73000050  -0.39999998  53.34999847
H    16.73999977   0.61000001  53.22000122
H     5.75999975  -0.02000000  55.70999908
H     6.44999981  -1.01999998  54.41999817
S    13.90999985  -1.50999999  50.06000137
C    11.30000019  -2.06999993  50.86999893
C    12.64000034  -2.34999990  50.97999954
C    13.17999935  -2.98000002  52.15000153
C    12.36999989  -3.50000000  53.13999939
C    10.97000027  -3.37000012  52.95999908
C    10.07999992  -3.96000004  53.89999771
C     8.71000004  -3.88000011  53.77999878
C     8.21000004  -3.12999988  52.69000244
C     9.02000046  -2.50999975  51.77000046
C    10.44000053  -2.61999989  51.86000061
C    14.59000015  -2.66000009  52.31999969
C    15.15999985  -1.89999998  51.25999832
C    16.46000099  -1.42000008  51.33999634
C     6.72999954  -3.28999996  52.43000031
H     6.33390331  -2.96463490  51.46805191
H    10.88000107  -1.56000006  50.00999832
H    12.72999954  -3.91000009  54.08000183
H    10.55999947  -4.57999992  54.65999985
H     8.09000015  -4.41000032  54.50000000
H     8.56999969  -2.01999998  50.90999985
H    16.94000053  -0.97999996  50.47999954
H     6.44000006  -4.33999968  52.50000000
H     6.11000013  -2.75999999  53.16999817
S    17.86999893  -3.30999994  54.52999878
C    20.51000214  -2.76999998  53.96999741
C    19.19000053  -2.48000002  53.68999863
C    18.73999977  -1.71000004  52.56999969
C    19.77000046  -1.25999999  51.76000214
C    21.14000130  -1.48000002  52.04000092
C    22.13000107  -0.92000002  51.18000031
C    23.45000076  -1.08999991  51.52000046
C    23.87000084  -1.98000002  52.55000305
C    22.93999863  -2.50000000  53.43000031
C    21.55999947  -2.21000004  53.20000076
C    17.28999901  -1.80000007  52.39999771
C    16.72999954  -2.75000000  53.29000092
C    15.42000008  -3.19999981  53.30999756
C    25.31999969  -2.38999987  52.64999771
H    25.77470398  -1.88556123  53.50257492
H    20.81000137  -3.35000014  54.84000397
H    19.55000114  -0.75999999  50.81999969
H    21.86000061  -0.38000000  50.27999878
H    24.23000145  -0.64000005  50.90999985
H    23.29000092  -3.25999999  54.12000275
H    15.17000008  -4.01999998  53.97999573
H    25.81000137  -2.11999989  51.70999908
H    25.34000015  -3.49000001  52.74000168
