96

S    17.40999985   2.00999999  57.61000061
C    20.09000015   2.03999996  56.88999939
C    18.79999924   1.70000005  56.56000137
C    18.46999931   1.34000003  55.20999908
C    19.52000046   1.25000000  54.31000137
C    20.86999893   1.52999997  54.61999893
C    21.93000031   1.52999997  53.68000031
C    23.22000122   1.72000003  54.10999680
C    23.47999954   2.25999999  55.40000153
C    22.50000000   2.25000000  56.35000229
C    21.15999985   1.95999992  55.96000290
C    17.02999878   1.28999996  55.07999802
C    16.31999969   1.61000001  56.25999832
C    14.93999958   1.71000004  56.38000107
C    24.86000061   2.82000017  55.65999985
H    25.41449165   2.10200500  56.26425552
H    20.31999969   2.31999993  57.91999817
H    19.09000015   1.02999997  53.33000183
H    21.76000214   1.10000002  52.69000244
H    24.00000000   1.42000008  53.40999985
H    22.65000153   2.72000027  57.31999969
H    14.57999992   1.95999992  57.37999725
H    25.40999985   3.07000017  54.75000000
H    24.68000031   3.79999995  56.11999893
S    13.68000031   0.56000000  52.80000305
C    11.00000000   0.68000007  53.61999893
C    12.32999992   0.96000004  53.87000275
C    12.74000072   1.52999997  55.12000275
C    11.80999947   1.65000010  56.12999725
C    10.46000004   1.25000000  55.97999954
C     9.48999977   1.15999997  57.02000046
C     8.21000004   0.75999999  56.72999954
C     7.78999996   0.43000001  55.41999817
C     8.73000050   0.39999998  54.41999817
C    10.05000019   0.88000000  54.65000153
C    14.19000053   1.48000002  55.21999741
C    14.85000038   1.04999995  54.03999710
C    16.23999977   0.97999996  53.95999908
C     6.32999992   0.17999999  55.11000061
H     5.89021254   0.78293443  54.31554794
H    10.72000027   0.35999998  52.62000275
H    12.07999992   1.69000006  57.18000031
H     9.68999958   1.35000002  58.06999969
H     7.42999983   0.83999997  57.48000336
H     8.39999962   0.16000001  53.40999985
H    16.79000092   0.64999998  53.08000183
H     5.71000004   0.34999999  56.00000000
H     6.11000013  -0.82999998  54.75000000
S    17.97999954   2.73999977  51.77000046
C    20.69000053   2.80999994  51.09000397
C    19.42000008   2.33999991  50.81999969
C    19.04000092   1.65000010  49.62999725
C    20.03999901   1.41000009  48.69999695
C    21.31000137   1.98000002  48.92000198
C    22.32000160   1.75000000  47.93000031
C    23.59999847   2.21000004  48.11999893
C    24.03000069   2.75999999  49.36000061
C    23.09999847   2.89000010  50.35999680
C    21.73000145   2.54999995  50.17000198
C    17.60000038   1.61000001  49.40999985
C    16.87999916   2.14000010  50.51000214
C    15.51000023   2.33999991  50.58000183
C    25.48999977   3.05999994  49.65000153
H    25.93310356   2.33817196  50.33609390
H    20.76999855   3.38999987  52.01000214
H    19.92000008   0.78000003  47.81999969
H    22.06999969   1.12000000  47.08000183
H    24.34999847   2.27999997  47.34000397
H    23.36999893   3.40000010  51.27999878
H    14.93999958   2.63999987  51.45000076
H    26.04000092   3.00999999  48.69999695
H    25.52000046   4.03999996  50.13999939
S    14.37000084   1.01999998  47.01000214
C    11.69000053   1.13999999  47.67000198
C    12.97999954   1.44999993  48.02000046
C    13.34000015   2.00999999  49.29000092
C    12.31999969   2.13000011  50.21999741
C    10.97000027   1.86000001  49.89999771
C     9.90999985   1.94999993  50.86000061
C     8.67999935   1.38999999  50.61999893
C     8.43000031   0.74000001  49.38000107
C     9.35999966   0.71999997  48.36000061
C    10.65000057   1.26999998  48.62999725
C    14.78999996   2.03999996  49.41999817
C    15.47999954   1.50000000  48.30999756
C    16.84999847   1.24000001  48.29000092
C     7.05999947   0.17000002  49.13000107
H     6.47630358   0.88182491  48.54630280
H    11.47999954   0.51999998  46.79999924
H    12.58999920   2.28999996  51.25999832
H    10.11000061   2.33999991  51.84999847
H     7.86000013   1.43000007  51.32999802
H     9.07999992   0.34000003  47.38999939
H    17.29999924   0.94999999  47.35000229
H     6.61999989   0.02000000  50.12000275
H     7.25000000  -0.81000000  48.68000031
