96

S    17.20000076   2.05999994  57.36000061
C    19.90999985   1.75999999  56.79999924
C    18.60999870   1.51999998  56.42000198
C    18.30000114   0.92000002  55.14999771
C    19.32999992   0.64999998  54.27000046
C    20.66999817   0.93999994  54.59999847
C    21.70999908   0.97000003  53.61999893
C    23.01000214   1.08000004  54.02999878
C    23.36000061   1.54999995  55.33000183
C    22.32999992   1.67999995  56.23000336
C    20.96999931   1.41000009  55.93000031
C    16.86000061   0.94999999  54.95999908
C    16.15999985   1.64000010  55.97999954
C    14.78000069   1.64000010  56.04000092
C    24.73999977   2.07999992  55.65000153
H    25.24524498   1.46801257  56.39719391
H    20.15000153   2.49000001  57.56000137
H    19.04999924   0.39999998  53.25000000
H    21.53000069   0.61000001  52.61000061
H    23.78000069   1.00999999  53.27000046
H    22.53000069   2.22000003  57.15999985
H    14.42999935   2.02999997  56.98999786
H    25.34000015   2.02999997  54.72999954
H    24.63999939   3.12000012  55.97999954
S    13.60999966  -0.14000000  52.69000244
C    10.90999985   0.09000000  53.30999756
C    12.20999908   0.38000000  53.64999771
C    12.57999992   0.96000004  54.91000366
C    11.56000042   1.36999989  55.75000000
C    10.21999931   1.08000004  55.40000153
C     9.23999977   1.38000000  56.38999939
C     7.94000053   0.97000003  56.20999908
C     7.59000015   0.22000000  55.06000137
C     8.50000000  -0.07000000  54.06000137
C     9.85000038   0.34999999  54.20999908
C    14.02999973   1.08999991  54.99000168
C    14.73000050   0.54000002  53.88999939
C    16.11999893   0.48000002  53.87000275
C     6.14000034   0.00000000  54.69999695
H     5.71233845   0.53457677  53.85180283
H    10.67000008  -0.44000000  52.38999939
H    11.64000034   1.75000000  56.76000214
H     9.44999981   1.80999994  57.36999893
H     7.17000008   1.22000003  56.93000031
H     8.30000019  -0.71000004  53.20999908
H    16.48999977  -0.12000000  53.04000092
H     5.51000023   0.24000001  55.56999969
H     5.92000008  -1.05999994  54.54999924
S    17.79000092   2.06999993  51.58000183
C    20.50000000   2.06999993  50.96000290
C    19.22000122   1.75000000  50.58000183
C    18.84000015   1.38000000  49.25000000
C    19.88999939   1.23000002  48.36000061
C    21.24000168   1.39999998  48.75000000
C    22.29999924   1.03999996  47.87000275
C    23.61000061   1.30999994  48.20000076
C    23.95000076   1.87999988  49.45999908
C    22.95999908   2.04999995  50.40000153
C    21.59000015   1.85000002  50.06999969
C    17.38999939   1.38000000  49.03999710
C    16.69999886   1.75999999  50.21999741
C    15.31999969   1.79000008  50.31999969
C    25.34000015   2.32999992  49.82999802
H    25.73242569   1.81627893  50.70760345
H    20.56999969   2.66999984  51.86000061
H    19.70999908   0.79000002  47.38999939
H    22.04000092   0.74000001  46.86000061
H    24.33000183   1.36999989  47.39999771
H    23.29000092   2.45000005  51.35000229
H    14.78999996   1.97000003  51.25000000
H    25.94000053   2.09999990  48.94000244
H    25.36999893   3.42999983  49.86999893
S    14.14000034   0.54000002  46.73999786
C    11.44000053   0.56999999  47.35000229
C    12.71999931   0.90000004  47.74000168
C    13.09000015   1.41000009  49.02999878
C    12.05000019   1.61000001  49.92000198
C    10.72999954   1.35000002  49.48999786
C     9.67000008   1.49000001  50.43000031
C     8.38999939   1.08000004  50.13000107
C     8.01000023   0.69000000  48.81999969
C     9.00000000   0.50999999  47.88000107
C    10.34999943   0.76999998  48.22999954
C    14.52999973   1.48000002  49.20000076
C    15.21999931   1.15999997  48.00000000
C    16.60000038   1.00999999  47.95000076
C     6.56000042   0.34999999  48.56999969
H     6.16165733   0.94040108  47.74486542
H    11.16000080   0.16000001  46.38000107
H    12.18999958   2.00999999  50.91999817
H     9.88000011   1.90999997  51.40999603
H     7.57000017   1.15999997  50.84000015
H     8.92000008  -0.04000000  46.93999863
H    17.05000114   0.75999999  46.98999786
H     5.88000011   0.39000002  49.43000031
H     6.53999996  -0.68000007  48.18999863
