96

S    17.50000000   1.94000006  57.60000229
C    20.17000008   1.90999997  56.91999817
C    18.88000107   1.59999990  56.53999710
C    18.45000076   1.23000002  55.21999741
C    19.40999985   1.18000007  54.22999954
C    20.75000000   1.49000001  54.54999924
C    21.81999969   1.38999999  53.61000061
C    23.11000061   1.71000004  53.95000076
C    23.51000023   1.98000002  55.28999710
C    22.50999832   1.98000002  56.23000336
C    21.12999916   1.87000012  55.87999725
C    17.00000000   1.14999998  55.15999603
C    16.31000137   1.52999997  56.33999634
C    14.92000008   1.53999996  56.43000031
C    24.97999954   2.16999984  55.59999847
H    25.46510696   1.59928477  56.39186478
H    20.42000008   2.05999994  57.97000122
H    19.31999969   0.76999998  53.22000122
H    21.73000145   1.01999998  52.58999634
H    23.85999870   1.41000009  53.22000122
H    22.76000023   2.16000009  57.27000427
H    14.51000023   1.63000000  57.43000031
H    25.40999985   1.76999998  54.66999817
H    25.25000000   3.23000002  55.68000031
S    13.75000000   0.43000001  52.83000183
C    11.13999939   0.05000000  53.60000229
C    12.38000011   0.52999997  53.95000076
C    12.65999985   0.90999997  55.30000305
C    11.61000061   1.01999998  56.19999695
C    10.31999969   0.56000000  55.84000015
C     9.17000008   0.71000004  56.65999985
C     7.90999985   0.28000000  56.31000137
C     7.65999985  -0.25999999  55.01999664
C     8.73000050  -0.28000000  54.15000153
C    10.05000019   0.09000000  54.51000214
C    14.09000015   1.14999998  55.37000275
C    14.80999947   0.90999997  54.16999817
C    16.20000076   0.85000002  54.06000137
C     6.30000019  -0.64999998  54.47999954
H     5.78102016  -0.03149015  53.74773788
H    10.93999958  -0.48999998  52.67000198
H    11.56999969   1.62000000  57.11000061
H     9.28999996   1.12000000  57.65999603
H     7.04999971   0.31000000  56.97999954
H     8.57999992  -0.65999997  53.13999939
H    16.68000031   0.44000000  53.16999817
H     5.69999981  -0.83999997  55.38000107
H     6.48999977  -1.64000010  54.06000137
S    17.67000008   2.43000007  51.49000168
C    20.38000107   2.57999992  50.79999924
C    19.09000015   2.27999997  50.43000031
C    18.70000076   1.80000007  49.13000107
C    19.75000000   1.43999994  48.29999924
C    21.09000015   1.74000001  48.63999939
C    22.20000076   1.52999997  47.77000046
C    23.50000000   1.86000001  48.06999969
C    23.80000114   2.40999985  49.34000015
C    22.77000046   2.75000000  50.20000076
C    21.45000076   2.31999993  49.91000366
C    17.27000046   1.61000001  48.99000168
C    16.57999992   2.09999990  50.13000107
C    15.19000053   2.16999984  50.20000076
C    25.20999908   2.79999995  49.72999954
H    25.80067635   2.13815784  50.36337662
H    20.62999916   2.99000001  51.77000046
H    19.51000023   1.00000000  47.34000397
H    22.01000023   1.22000003  46.75000000
H    24.21999931   1.84000003  47.25999832
H    22.93000031   3.38000011  51.06999969
H    14.61999989   2.31999993  51.11000061
H    25.81999969   2.99000001  48.82999802
H    25.17000008   3.75000000  50.27000046
S    14.04000092   0.97000003  46.59999847
C    11.26999950   1.02999997  47.29999924
C    12.58999920   1.26999998  47.57999802
C    13.01000023   1.58000004  48.92000198
C    12.05999947   1.63000000  49.93000031
C    10.70000076   1.34000003  49.64000320
C     9.73999977   1.38000000  50.68999863
C     8.42000008   1.08999991  50.43000031
C     8.05000019   0.65999997  49.13000107
C     8.90999985   0.67000002  48.06000137
C    10.26000023   1.04999995  48.29999924
C    14.44000053   1.75000000  49.09000015
C    15.14999962   1.36000013  47.93000031
C    16.54000092   1.23000002  47.85999680
C     6.65000010   0.23000000  48.76999664
H     6.25196218   0.87681198  47.98814011
H    10.95999908   0.64999998  46.32999802
H    12.38999939   1.99000001  50.90000153
H     9.98000050   1.65000010  51.70999908
H     7.63000011   1.11000001  51.18000031
H     8.56000042   0.45000002  47.05999756
H    16.97000122   0.97000003  46.90000153
H     6.01999998   0.27000001  49.66999817
H     6.61999989  -0.82000005  48.46000290
