96

S    17.86000061   1.90999997  57.41000366
C    20.46999931   2.56999993  56.59999847
C    19.20999908   2.10999990  56.27999878
C    18.81000137   1.58000004  55.00999832
C    19.81999969   1.43999994  54.08000183
C    21.15999985   1.80000007  54.34999847
C    22.23999977   1.50999999  53.47000122
C    23.52000046   1.79000008  53.87000275
C    23.78999901   2.39999986  55.13000107
C    22.79999924   2.73999977  56.03000259
C    21.47999954   2.42000008  55.61000061
C    17.38999939   1.31999993  54.86000061
C    16.72999954   1.53999996  56.09000397
C    15.34999943   1.54999995  56.22000122
C    25.23999977   2.53999996  55.51000214
H    25.60286140   1.89965653  56.31398773
H    20.76999855   2.80999994  57.61000061
H    19.62000084   1.00999999  53.09999847
H    21.97999954   1.03999996  52.52999878
H    24.31999969   1.54999995  53.16999817
H    22.93000031   3.12000012  57.04000092
H    14.88999939   1.82999992  57.16999817
H    25.82999992   2.37000012  54.59999847
H    25.32999992   3.61000013  55.75000000
S    14.07999992   0.68000007  52.56999969
C    11.43000031   0.62000000  53.31999969
C    12.69999981   1.00999999  53.63999939
C    13.12000084   1.36000013  54.97000122
C    12.18000031   1.43999994  55.97999954
C    10.81999969   1.19000006  55.65000153
C     9.81999969   1.21000004  56.66999817
C     8.51000023   0.94999999  56.35000229
C     8.19000053   0.38000000  55.08999634
C     9.15000057   0.31000000  54.10999680
C    10.44000053   0.87000000  54.29999924
C    14.56999969   1.36999989  55.06999969
C    15.22999954   0.94999999  53.88999939
C    16.61000061   0.79999995  53.81000137
C     6.72999954   0.06000000  54.81999969
H     6.16721249   0.79376018  54.24296570
H    11.21999931   0.05000000  52.41000366
H    12.43999958   1.44999993  57.02999878
H    10.10000038   1.46000004  57.69000244
H     7.82000017   0.87000000  57.18999863
H     9.07999992  -0.23000000  53.16999817
H    16.98999977   0.41999999  52.87000275
H     6.23000050  -0.13000000  55.77000046
H     6.63999987  -0.92000002  54.33000183
S    17.86000061   2.61999989  51.55000305
C    20.53999901   2.96000004  50.87999725
C    19.27999878   2.59000015  50.47999954
C    18.88000107   2.17999983  49.16999817
C    19.88000107   2.05999994  48.22999954
C    21.21000099   2.39999986  48.54999924
C    22.29000092   2.24000001  47.63000107
C    23.59999847   2.54999995  47.91999817
C    23.92000008   3.07999992  49.19000244
C    22.88999939   3.19000006  50.11000061
C    21.52000046   2.91000009  49.86000061
C    17.43999863   2.04999995  49.00000000
C    16.73999977   2.32999992  50.20000076
C    15.36999893   2.50000000  50.20999908
C    25.38000107   3.38999987  49.41999817
H    25.77152824   2.64965487  50.11763382
H    20.72000122   3.30000019  51.90000153
H    19.62000084   1.72999990  47.22000122
H    22.03000069   1.88999999  46.63000107
H    24.40999985   2.46000004  47.19999695
H    23.13999939   3.38999987  51.14999771
H    14.80999947   2.82000017  51.09000397
H    26.01000023   3.38999987  48.52000427
H    25.53999901   4.41000032  49.79999924
S    14.27000046   1.25000000  46.59000015
C    11.51999950   1.24000001  47.28000259
C    12.84000015   1.49000001  47.60000229
C    13.17999935   1.94999993  48.92000198
C    12.20000076   2.05999994  49.87999725
C    10.84000015   1.79000008  49.56999969
C     9.84000015   1.77999997  50.58000183
C     8.53999996   1.41000009  50.28999710
C     8.19000053   1.12000000  48.95000076
C     9.15000057   1.00999999  47.97000122
C    10.48999977   1.38999999  48.23999786
C    14.61999989   2.06999993  49.09999847
C    15.34000015   1.70000005  47.94000244
C    16.72000122   1.72999990  47.83000183
C     6.74000025   0.86000001  48.61999893
H     6.41242695   1.37272322  47.71561432
H    11.21000099   0.73000002  46.36000061
H    12.50000000   2.25000000  50.90999985
H    10.01000023   2.00999999  51.62000275
H     7.85000038   1.29999995  51.12999725
H     9.02000046   0.74000001  46.91999817
H    17.22999954   1.35000002  46.95000076
H     6.03999996   1.12000000  49.41999817
H     6.78999996  -0.22000000  48.46000290
