96

S    17.76000023   2.15000010  57.51999664
C    20.43999863   2.25999999  56.77000046
C    19.17000008   1.82999992  56.49000168
C    18.76000023   1.28999996  55.21999741
C    19.72999954   1.00000000  54.27999878
C    21.07999992   1.36000013  54.52000046
C    22.13999939   1.12000000  53.60000229
C    23.43000031   1.52999997  53.81999969
C    23.75000000   2.15000010  55.05000305
C    22.77000046   2.34999990  55.98999786
C    21.40999985   2.00000000  55.76000214
C    17.30999947   1.16999996  55.13999939
C    16.61000061   1.63000000  56.27999878
C    15.22999954   1.69000006  56.39999771
C    25.15999985   2.59999990  55.38999939
H    25.63488197   2.11094260  56.24053574
H    20.82999992   2.82000017  57.62000275
H    19.55999947   0.55000001  53.30999756
H    21.84999847   0.73000002  52.63000107
H    24.23999977   1.36999989  53.11000061
H    23.05999947   3.03999996  56.77999878
H    14.78999996   2.17999983  57.27000427
H    25.76999855   2.44000006  54.50000000
H    25.23999977   3.65999985  55.63999939
S    14.04999924   0.19000000  52.95000076
C    11.35000038   0.31000000  53.54000092
C    12.63000011   0.69000000  53.88999939
C    13.01000023   1.07000005  55.21999741
C    12.05000019   1.35000002  56.17000198
C    10.70000076   1.11000001  55.79999924
C     9.56999969   1.28000009  56.65000153
C     8.28999996   0.93000001  56.30000305
C     7.97999954   0.50000000  54.99000168
C     9.02000046   0.25999999  54.12000275
C    10.34999943   0.56999999  54.51000214
C    14.45000076   1.14999998  55.37000275
C    15.15999985   0.62000000  54.26000214
C    16.54000092   0.64000005  54.09000015
C     6.58999968   0.01000000  54.61000061
H     6.24283743   0.70432550  53.84482574
H    11.18999958  -0.05000000  52.52999878
H    12.20999908   1.76999998  57.15999985
H     9.84000015   1.65999997  57.63999939
H     7.50000000   1.12000000  57.02000046
H     8.86999989  -0.32000002  53.20999908
H    16.94000053   0.45000002  53.09999847
H     5.88000011  -0.02000000  55.44000244
H     6.69000053  -1.00000000  54.19000244
S    17.84000015   2.48000002  51.75000000
C    20.51000214   2.54999995  51.11000061
C    19.26000023   2.04999995  50.79000092
C    18.96999931   1.43999994  49.52999878
C    20.00000000   1.41000009  48.60000229
C    21.31999969   1.81999993  48.88000107
C    22.42000198   1.65000010  48.00000000
C    23.64999962   2.13000011  48.39000320
C    23.88999939   2.66000009  49.68999863
C    22.84000015   2.91000009  50.54000092
C    21.54999924   2.45000005  50.15999603
C    17.53000069   1.39999998  49.36000061
C    16.77000046   1.85000002  50.47999954
C    15.39999962   2.03999996  50.41999817
C    25.28000069   3.08999991  50.08999634
H    25.93933296   2.27469802  50.38776398
H    20.65000153   2.94000006  52.11000061
H    19.93999863   0.94999999  47.62000275
H    22.23999977   1.24000001  47.01000214
H    24.46000099   2.01999998  47.68000031
H    23.06999969   3.35999990  51.50000000
H    14.84000015   2.31999993  51.31000137
H    25.79000092   3.75000000  49.38000107
H    25.15999985   3.75999975  50.94999695
S    14.30999947   0.96000004  46.75000000
C    11.56999969   1.02999997  47.38999939
C    12.88000011   1.23000002  47.75000000
C    13.25000000   1.67999995  49.06000137
C    12.27000046   1.87999988  50.01999664
C    10.90999985   1.64000010  49.71000290
C     9.85000038   1.97000003  50.59000015
C     8.53999996   1.94000006  50.17000198
C     8.18000031   1.33000004  48.94000244
C     9.19999981   1.13000000  48.02999878
C    10.57000065   1.33000004  48.34999847
C    14.68999958   1.75999999  49.23999786
C    15.39999962   1.28000009  48.11000061
C    16.77999878   1.10000002  48.22000122
C     6.81999969   0.71000004  48.69999695
H     6.31405210   1.20882177  47.87338257
H    11.21999931   0.69000000  46.40999603
H    12.60000038   2.26999998  50.97999954
H    10.14999962   2.04999995  51.63000107
H     7.69999981   1.93000007  50.86000061
H     9.06000042   0.56000000  47.11999893
H    17.36999893   0.82000005  47.36000061
H     6.24000025   0.69000000  49.64000320
H     7.13999987  -0.29999998  48.40999985
