96

S    17.45000076   1.92000008  57.49000168
C    20.13999939   1.75000000  56.91999817
C    18.85000038   1.48000002  56.50000000
C    18.44000053   0.99000001  55.21999741
C    19.45000076   0.83999997  54.29000092
C    20.79000092   1.14999998  54.62999725
C    21.84000015   1.13999999  53.67000198
C    23.09000015   1.63000000  53.95000076
C    23.38000107   2.09999990  55.25000000
C    22.42000198   2.14000010  56.24000168
C    21.15999985   1.52999997  55.97000122
C    17.00000000   0.97999996  55.02999878
C    16.32999992   1.38000000  56.22000122
C    14.93999958   1.47000003  56.31000137
C    24.80999947   2.47000003  55.56999969
H    25.29970932   1.76737261  56.24423981
H    20.38000107   2.26999998  57.84999847
H    19.18000031   0.54000002  53.27999878
H    21.52000046   0.75999999  52.70000076
H    23.88000107   1.53999996  53.20000076
H    22.63999939   2.38999987  57.27000427
H    14.47000027   1.56000006  57.29000092
H    25.45000076   2.39999986  54.68000031
H    24.79999924   3.45000005  56.05999756
S    13.76000023   0.23000000  52.69000244
C    11.06999969   0.11000000  53.52000427
C    12.38000011   0.41999999  53.80000305
C    12.76000023   0.87000000  55.11000061
C    11.78999996   1.04999995  56.07999802
C    10.44000053   0.76999998  55.77000046
C     9.35000038   1.00000000  56.65999985
C     8.03999996   0.83999997  56.30000305
C     7.64999962   0.41999999  55.00000000
C     8.67000008   0.14999999  54.10999680
C    10.03999901   0.29999998  54.47000122
C    14.19000053   1.12000000  55.18000031
C    14.84000015   0.85000002  53.95000076
C    16.22999954   0.74000001  53.88999939
C     6.25000000   0.04000000  54.59999847
H     5.85934448   0.53719765  53.71214676
H    10.85999966  -0.41999999  52.58999634
H    12.01000023   1.58000004  57.00000000
H     9.53999996   1.29999995  57.69000244
H     7.34000015   1.00999999  57.11000061
H     8.43999958  -0.16000001  53.09000015
H    16.77000046   0.46000001  52.98999786
H     5.56999969   0.19000000  55.44000244
H     6.21999979  -1.05999994  54.48999786
S    17.87999916   2.38999987  51.65999985
C    20.52000046   2.47000003  51.00999832
C    19.27999878   2.00999999  50.63999939
C    19.03000069   1.56000006  49.29999924
C    20.07999802   1.48000002  48.40000153
C    21.35999870   1.94000006  48.75999832
C    22.46999931   2.07999992  47.87000275
C    23.68000031   2.66000009  48.13999939
C    23.90999985   3.09999990  49.47000122
C    22.79999924   3.21000004  50.27999878
C    21.54999924   2.56999993  50.04000092
C    17.59000015   1.41000009  49.15000153
C    16.87999916   1.86000001  50.28999710
C    15.52000046   2.13000011  50.27999878
C    25.20999908   3.61999989  50.02999878
H    25.71327591   2.84736538  50.61124802
H    20.58000183   2.96999979  51.97999954
H    19.96999931   1.19999993  47.35000229
H    22.42000198   1.62000000  46.88000107
H    24.38999939   2.82999992  47.34000397
H    23.02999878   3.53999996  51.29000092
H    15.05000019   2.43000007  51.22000122
H    25.81999969   4.19999981  49.31999969
H    24.79000092   4.44999981  50.61000061
S    14.42999935   0.90000004  46.70000076
C    11.71000004   0.76999998  47.25999832
C    12.97000027   1.11000001  47.69000244
C    13.34000015   1.58999991  48.99000168
C    12.30999947   1.71000004  49.89999771
C    10.98000050   1.38999999  49.54000092
C     9.94999981   1.42000008  50.52000046
C     8.67000008   1.01999998  50.20999908
C     8.39999962   0.51999998  48.90999603
C     9.34000015   0.51999998  47.90999985
C    10.69000053   0.86000001  48.23999786
C    14.78000069   1.77999997  49.15000153
C    15.50000000   1.19000006  48.08000183
C    16.87999916   1.07000005  47.98999786
C     7.00000000   0.06000000  48.55999756
H     6.55118561   0.56580704  47.70511627
H    11.59000015   0.46000001  46.23000336
H    12.51999950   1.97000003  50.93999863
H    10.15999985   1.72000003  51.55000305
H     7.90999985   1.10000002  50.98999786
H     9.13999939   0.09000000  46.93000031
H    17.36999893   0.85000002  47.04000092
H     6.48999977   0.39000002  49.47999954
H     6.93000031  -1.02999997  48.53000259
