96

S    17.67000008   1.88999999  57.56000137
C    20.32999992   2.02999997  56.72999954
C    19.04000092   1.62000000  56.45999908
C    18.67000008   1.08999991  55.18000031
C    19.62000084   0.96000004  54.19000244
C    20.95999908   1.28999996  54.47999954
C    22.01000023   1.00999999  53.55999756
C    23.31000137   1.36000013  53.82999802
C    23.68999863   2.04999995  55.00999832
C    22.69000053   2.28999996  55.91999817
C    21.34000015   1.87000012  55.73999786
C    17.21999931   1.00000000  55.10000229
C    16.54000092   1.50000000  56.24000168
C    15.14999962   1.52999997  56.32999802
C    25.07999802   2.47000003  55.43000031
H    25.39355087   1.81439316  56.24238205
H    20.62000084   2.52999997  57.64999771
H    19.36000061   0.50999999  53.22999954
H    21.78999901   0.68000007  52.54000092
H    24.07999992   1.19999993  53.09000015
H    22.90999985   2.79999995  56.84999847
H    14.65000057   1.93000007  57.19999695
H    25.76999855   2.42000008  54.58000183
H    24.93999863   3.51000023  55.76000214
S    13.94000053   0.56000000  52.70000076
C    11.19999981   0.61000001  53.37999725
C    12.51999950   0.75000000  53.75000000
C    12.89000034   1.25999999  55.04000092
C    11.89000034   1.47000003  55.97000122
C    10.52999973   1.24000001  55.65999985
C     9.50000000   1.31999993  56.65000153
C     8.22000027   0.90999997  56.37000275
C     7.86999989   0.63000000  55.01999664
C     8.80999947   0.56000000  54.02000046
C    10.18000031   0.79000002  54.34000015
C    14.32999992   1.22000003  55.24000168
C    15.03000069   0.85000002  54.06999969
C    16.40999985   0.69000000  54.00000000
C     6.40999985   0.39000002  54.71000290
H     6.06914425   0.84447426  53.77975082
H    10.95999908   0.01000000  52.50000000
H    12.05999947   1.75000000  57.01000214
H     9.85999966   1.63000000  57.63000107
H     7.42999983   0.93999994  57.11999893
H     8.43000031   0.39999998  53.02000046
H    16.88999939   0.31000000  53.09999847
H     5.82999992   0.75999999  55.56000137
H     6.28999996  -0.69999999  54.66999817
S    17.70000076   2.37000012  51.65000153
C    20.43000031   2.43000007  51.03000259
C    19.14999962   2.04999995  50.70000076
C    18.78000069   1.51999998  49.41999817
C    19.80999947   1.50999999  48.48999786
C    21.14999962   1.76999998  48.83999634
C    22.25000000   1.53999996  47.97000122
C    23.54000092   1.88999999  48.31999969
C    23.87000084   2.57999992  49.52000046
C    22.86000061   2.61000013  50.45000076
C    21.52000046   2.23000002  50.15999603
C    17.35000038   1.51999998  49.16999817
C    16.61999893   1.97000003  50.30000305
C    15.25000000   2.17999983  50.31000137
C    25.25000000   3.15000010  49.79000092
H    25.84301949   2.49267673  50.42588806
H    20.51000214   2.82999992  52.04000092
H    19.51000023   1.05999994  47.55000305
H    22.04999924   1.19000006  46.95999908
H    24.25000000   1.81999993  47.50000000
H    23.18000031   3.02999997  51.40999603
H    14.72000027   2.54999995  51.18000031
H    25.81000137   3.32999992  48.86000061
H    25.06999969   4.09000015  50.31999969
S    14.11999893   0.86000001  46.76000214
C    11.51999950   0.52999997  47.61000061
C    12.76999950   1.02999997  47.90000153
C    13.03999996   1.61000001  49.18000031
C    12.02000046   1.77999997  50.08999634
C    10.70000076   1.35000002  49.81999969
C     9.63999939   1.58999991  50.73999786
C     8.34999943   1.43000007  50.30000305
C     8.11999989   0.71999997  49.09000015
C     9.13999939   0.34000003  48.25000000
C    10.48999977   0.64000005  48.57999802
C    14.48999977   1.74000001  49.20999908
C    15.22999954   1.35000002  48.06000137
C    16.61000061   1.19000006  48.02000046
C     6.71000004   0.27000001  48.80000305
H     6.11985207   0.88147867  48.11742020
H    11.31999969  -0.07000000  46.72999954
H    12.23000050   2.20000005  51.06999969
H     9.94999981   2.11999989  51.63000107
H     7.53999996   1.90999997  50.84999847
H     8.88000011  -0.04000000  47.27000427
H    17.10000038   0.79000002  47.14000320
H     6.21999979   0.14999999  49.78000259
H     6.80000019  -0.78000003  48.48999786
