96

S    17.35000038   1.92000008  57.60000229
C    20.06999969   1.89999998  56.95999908
C    18.78000069   1.59999990  56.59999847
C    18.44000053   1.08999991  55.30000305
C    19.45000076   0.79999995  54.40999985
C    20.79999924   1.11000001  54.71000290
C    21.86000061   0.83999997  53.79000092
C    23.13999939   1.15999997  54.15999985
C    23.42000008   1.90999997  55.33000183
C    22.39999962   2.19000006  56.22000122
C    21.07000160   1.75000000  55.97000122
C    16.98999977   1.08999991  55.11000061
C    16.27000046   1.44999993  56.27999878
C    14.88000011   1.36999989  56.36000061
C    24.82000160   2.33999991  55.68999863
H    25.24675941   1.67852402  56.44393921
H    20.22999954   2.50999975  57.84000015
H    19.27999878   0.43000001  53.40000153
H    21.76000214   0.41000003  52.80000305
H    23.92999840   0.90999997  53.44999695
H    22.53000069   2.73000002  57.15000153
H    14.39000034   1.67999995  57.27000427
H    25.51000214   2.51999998  54.85000229
H    24.65999985   3.33999991  56.11000061
S    13.90999985   0.09999999  52.70999908
C    11.13999939   0.14999999  53.30999756
C    12.44999981   0.35999998  53.68000031
C    12.69999981   0.88999999  54.99000168
C    11.68000031   1.10000002  55.90000153
C    10.32999992   0.90000004  55.52999878
C     9.25000000   0.93999994  56.45999908
C     7.96999979   0.63000000  56.07999802
C     7.75000000   0.19000000  54.75000000
C     8.75000000   0.05000000  53.81000137
C    10.06000042   0.46000001  54.18000031
C    14.13000011   1.03999996  55.21999741
C    14.88999939   0.67000002  54.08000183
C    16.27000046   0.64000005  54.00000000
C     6.30999994  -0.22000000  54.50000000
H     5.89785242   0.39111516  53.69702148
H    10.88000107  -0.46999997  52.47000122
H    12.01000023   1.35000002  56.90000153
H     9.44000053   1.12000000  57.50999832
H     7.16000032   0.61000001  56.81000137
H     8.63000011  -0.48000002  52.87000275
H    16.77999878   0.13000000  53.18999863
H     5.77000046  -0.23000000  55.45000076
H     6.32000017  -1.25999999  54.15999985
S    13.94000053  -1.95999992  49.47999954
C    11.19999981  -2.14000010  50.17000198
C    12.53000069  -2.37000012  50.47000122
C    12.97000027  -3.05999994  51.63999939
C    12.02999973  -3.58000016  52.50999832
C    10.65999985  -3.40000010  52.18000031
C     9.61999989  -3.91000009  53.01000214
C     8.30000019  -3.75999975  52.65999603
C     7.86000013  -3.05000019  51.51000214
C     8.84000015  -2.56999993  50.65999985
C    10.21000004  -2.73000002  50.98999786
C    14.39000034  -2.87999988  51.90000153
C    15.06999969  -2.26999998  50.80999756
C    16.39000130  -1.87000012  50.94999695
C     6.42000008  -3.09999990  51.05999756
H     6.26245785  -3.86622620  50.30093384
H    11.00999928  -1.72000003  49.18000031
H    12.30000019  -4.17000008  53.39000320
H     9.84000015  -4.30999994  54.00000000
H     7.59000015  -4.23000002  53.34000015
H     8.60000038  -2.02999997  49.75000000
H    16.95000076  -1.38000000  50.17000198
H     5.88999987  -3.51000023  51.93000031
H     5.88999987  -2.16999984  50.81999969
S    17.57999992  -3.40999985  54.38000107
C    20.32999992  -3.00000000  53.72000122
C    18.98999977  -2.86999989  53.44999695
C    18.56999969  -2.17999983  52.27000427
C    19.50000000  -1.59999990  51.43000031
C    20.88000107  -1.66999996  51.76000214
C    21.87999916  -1.18000007  50.87999725
C    23.22000122  -1.35000002  51.17000198
C    23.61000061  -2.11999989  52.29999924
C    22.69000053  -2.63000011  53.18000031
C    21.31999969  -2.32999992  52.95999908
C    17.12000084  -2.21000004  52.09999847
C    16.43000031  -2.89000010  53.13000107
C    15.06000042  -3.15000010  53.09000015
C    25.06999969  -2.36000013  52.56999969
H    25.47495461  -2.08292556  53.54331589
H    20.62999916  -3.61999989  54.56999969
H    19.19999886  -1.19000006  50.47000122
H    21.53000069  -0.61000001  50.02999878
H    24.04000092  -0.86000001  50.66999817
H    22.88999939  -3.44000006  53.88999939
H    14.52999973  -3.67000008  53.88000107
H    25.59000015  -1.75000000  51.81999969
H    25.19000053  -3.42999983  52.35000229
