96

S    17.40999985   1.82999992  57.84999847
C    20.07999802   1.88999999  57.11000061
C    18.78000069   1.58000004  56.76000214
C    18.46999931   1.08000004  55.45999908
C    19.52999878   0.93999994  54.58000183
C    20.86999893   1.29999995  54.89999771
C    21.88999939   1.05999994  53.93000031
C    23.18000031   1.36999989  54.29000092
C    23.50000000   1.90999997  55.56000137
C    22.53999901   2.00000000  56.53999710
C    21.18999863   1.69000006  56.24000168
C    17.02000046   1.01999998  55.34000015
C    16.32999992   1.46000004  56.50000000
C    14.93999958   1.41000009  56.55000305
C    24.92000198   2.42000008  55.72999954
H    25.41202164   1.83527946  56.50725174
H    20.20000076   2.07999992  58.16999817
H    19.31999969   0.56000000  53.59000397
H    21.60000038   0.64999998  52.97000122
H    23.87000084   1.31999993  53.46000290
H    22.79999924   2.45000005  57.50000000
H    14.47000027   1.65000010  57.50000000
H    25.50000000   2.39999986  54.79999924
H    24.79999924   3.48000002  56.00999832
S    13.88000011   0.39999998  52.84000015
C    11.23000050   0.08000001  53.44999695
C    12.44999981   0.55000001  53.88000107
C    12.79999924   0.94999999  55.20999908
C    11.82000065   0.97999996  56.18000031
C    10.52000046   0.57999998  55.77999878
C     9.43000031   0.62000000  56.69000244
C     8.17000008   0.17000002  56.38000107
C     7.92000008  -0.39000002  55.10000229
C     8.96000004  -0.50999999  54.20999908
C    10.25000000   0.03000000  54.47999954
C    14.23999977   1.14999998  55.37000275
C    14.94999981   0.83999997  54.19000244
C    16.31999969   0.59999996  54.20000076
C     6.58999968  -0.96000004  54.65999985
H     5.98284674  -0.28856009  54.05284882
H    11.02000046  -0.28000000  52.44999695
H    11.97999954   1.28000009  57.21000290
H     9.63000011   1.08999991  57.64999771
H     7.26000023   0.52999997  56.84999847
H     8.88000011  -0.97999996  53.22999954
H    16.87999916   0.11000000  53.40999985
H     5.98999977  -1.33000004  55.51000214
H     6.71999979  -1.87999988  54.08000183
S    17.86999893   2.17999983  51.60999680
C    20.55999947   2.39999986  50.93000031
C    19.27999878   2.06999993  50.54999924
C    18.93000031   1.59999990  49.23999786
C    19.93999863   1.46000004  48.31999969
C    21.28999901   1.72999990  48.64999771
C    22.37999916   1.63000000  47.72999573
C    23.64000130   1.99000001  48.13000107
C    23.94000053   2.45000005  49.43999863
C    22.92000008   2.50999975  50.35999680
C    21.59000015   2.17999983  49.98000336
C    17.50000000   1.30999994  49.15000153
C    16.77000046   1.70000005  50.30000305
C    15.38000011   1.80000007  50.31000137
C    25.31999969   2.87999988  49.87999725
H    25.71745491   2.27672267  50.69620132
H    20.81000137   2.72000027  51.93999863
H    19.75000000   1.08000004  47.31999969
H    22.13999939   1.12000000  46.79999924
H    24.36000061   1.90999997  47.31999969
H    23.09000015   2.73000002  51.42000198
H    14.84000015   2.29999995  51.10000229
H    26.07000160   2.84999990  49.08000183
H    25.27000046   3.91999984  50.25000000
S    14.32000065   0.97000003  46.60999680
C    11.57999992   0.74000001  47.25000000
C    12.86999893   1.07000005  47.62000275
C    13.21000004   1.54999995  48.93000031
C    12.15999985   1.75000000  49.80999756
C    10.82999992   1.34000003  49.54000092
C     9.81999969   1.48000002  50.54000092
C     8.51000023   1.29999995  50.17000198
C     8.21000004   0.78000003  48.88999939
C     9.18000031   0.59000003  47.93000031
C    10.53999996   0.90999997  48.20000076
C    14.63999939   1.49000001  49.15999985
C    15.39999962   1.14999998  48.01000214
C    16.79000092   1.05999994  47.97000122
C     6.78999996   0.34000003  48.62999725
H     6.27227306   0.93574059  47.87823105
H    11.38000011   0.38000000  46.25000000
H    12.43000031   2.15000010  50.77999878
H    10.11999989   1.88999999  51.51000214
H     7.73000002   1.42000008  50.91999817
H     8.89999962   0.19000000  46.95999908
H    17.34000015   0.85000002  47.05999756
H     6.19000006   0.25000000  49.54000092
H     6.74000025  -0.71000004  48.29000092
