96

S    17.36999893   1.79000008  57.63999939
C    20.10999870   1.75000000  57.02999878
C    18.81999969   1.38000000  56.70999908
C    18.40999985   0.88999999  55.43000031
C    19.43000031   0.75000000  54.50000000
C    20.76999855   1.07000005  54.79999924
C    21.83000183   0.96000004  53.85000229
C    23.16999817   1.04999995  54.15000153
C    23.51000023   1.47000003  55.45999908
C    22.53999901   1.69000006  56.40999603
C    21.15999985   1.48000002  56.11999893
C    16.97000122   0.71000004  55.31000137
C    16.23999977   1.28000009  56.38000107
C    14.88999939   1.61000001  56.26999664
C    24.93000031   1.89999998  55.72999954
H    25.32695770   1.36835968  56.59480286
H    20.42000008   2.19000006  57.97000122
H    19.13999939   0.34000003  53.54000092
H    21.68000031   0.67000002  52.81000137
H    23.81999969   1.03999996  53.27999878
H    22.67999840   2.10999990  57.39999771
H    14.37000084   2.04999995  57.11999893
H    25.59999847   1.82999992  54.86000061
H    24.86999893   2.98000002  55.87999725
S    13.92000008   0.19999999  52.64999771
C    11.19999981  -0.03000000  53.40000153
C    12.46999931   0.45000002  53.62999725
C    12.77999973   1.04999995  54.88999939
C    11.76000023   1.35000002  55.77999878
C    10.44000053   0.93999994  55.51000214
C     9.44000053   1.03999996  56.52000046
C     8.17000008   0.55000001  56.29000092
C     7.82000017  -0.03000000  55.04000092
C     8.78999996  -0.17999999  54.08000183
C    10.13000011   0.25000000  54.27999878
C    14.22000027   1.11000001  55.14999771
C    14.93999958   0.59000003  54.05000305
C    16.31000137   0.35999998  54.12000275
C     6.44999981  -0.65999997  54.88999939
H     5.87424421  -0.11267632  54.14364624
H    10.95000076  -0.62000000  52.51999664
H    12.05000019   1.86000001  56.69000244
H     9.70000076   1.50999999  57.47000122
H     7.44000006   0.64000005  57.08000183
H     8.47000027  -0.61000001  53.13000107
H    16.87000084   0.00000000  53.26000214
H     5.97000027  -0.69000000  55.87999725
H     6.43000031  -1.70000005  54.54999924
S    14.11000061  -1.87999988  49.69999695
C    11.44999981  -2.43000007  50.50000000
C    12.81000042  -2.49000001  50.72999954
C    13.35999966  -3.10999990  51.90000153
C    12.48000050  -3.54999995  52.87000275
C    11.07999992  -3.42000008  52.77000046
C    10.11999989  -3.76999998  53.75999832
C     8.76000023  -3.73000002  53.55999756
C     8.28999996  -3.45999980  52.25000000
C     9.19000053  -3.01999998  51.31000137
C    10.59999943  -3.01999998  51.46999741
C    14.78999996  -2.87999988  52.04999924
C    15.36000061  -2.26999998  50.90000153
C    16.67000008  -1.81999993  50.96000290
C     6.83000040  -3.58000016  51.90000153
H     6.60282087  -3.62969565  50.83509827
H    11.05999947  -1.89999998  49.64000320
H    12.94000053  -3.89999986  53.80000305
H    10.70000076  -4.09999990  54.62999725
H     8.13000011  -4.07999992  54.38000107
H     8.86999989  -2.69000006  50.31999969
H    17.09000015  -1.16999996  50.20000076
H     6.48000002  -4.48000002  52.42000198
H     6.21999979  -2.73000002  52.22999954
S    18.09000015  -3.52999973  54.25000000
C    20.71000099  -2.72000027  53.73000336
C    19.38999939  -2.73999977  53.34000015
C    18.93000031  -2.03999996  52.18000031
C    19.88000107  -1.47000003  51.35000229
C    21.27000046  -1.56000006  51.60999680
C    22.29000092  -1.29999995  50.65999985
C    23.61000061  -1.56000006  50.94999695
C    24.03000069  -2.07999992  52.19999695
C    23.05999947  -2.28999996  53.15999985
C    21.68000031  -2.20000005  52.84000015
C    17.48999977  -2.19000006  52.02999878
C    16.88999939  -2.93000007  53.08000183
C    15.53999996  -3.22000003  53.18000031
C    25.48999977  -2.36000013  52.48000336
H    25.96763802  -1.88236272  53.33547211
H    21.11000061  -3.07999992  54.68000031
H    19.52999878  -1.08000004  50.40000153
H    21.98999786  -1.13999999  49.61999893
H    24.37999916  -1.43999994  50.20000076
H    23.34000015  -2.77999997  54.09000015
H    15.14000034  -3.61999989  54.10999680
H    26.05999947  -2.19000006  51.56000137
H    25.56999969  -3.45000005  52.56999969
