96

S    17.82999992   2.11999989  57.62000275
C    20.55000114   1.99000001  57.05999756
C    19.26000023   1.75000000  56.63999939
C    18.84000015   1.16999996  55.40000153
C    19.88999939   0.93000001  54.52999878
C    21.22999954   1.23000002  54.85000229
C    22.29000092   1.12000000  53.89999771
C    23.59999847   1.43000007  54.20999908
C    23.97999954   1.70000005  55.54999924
C    22.95999908   2.06999993  56.38999939
C    21.60000038   1.75000000  56.13999939
C    17.39999962   1.10000002  55.22999573
C    16.69999886   1.65999997  56.32999802
C    15.31999969   1.76999998  56.38999939
C    25.43000031   1.99000001  55.87999725
H    25.70774269   1.59119117  56.85565567
H    20.84000015   2.50999975  57.97000122
H    19.65999985   0.43000001  53.59000397
H    21.98999786   0.73000002  52.93000031
H    24.37000084   1.25999999  53.46000290
H    23.28000069   2.32999992  57.39999771
H    14.77000046   2.02999997  57.29000092
H    26.14000130   1.62000000  55.13000107
H    25.53999901   3.07999992  56.00999832
S    14.19999981   0.68000007  52.70999908
C    11.46999931   0.69999999  53.36000061
C    12.77999973   0.82999998  53.75999832
C    13.10999966   1.21000004  55.08999634
C    12.05000019   1.41000009  55.96000290
C    10.69000053   1.19000006  55.61999893
C     9.64999962   1.11000001  56.58000183
C     8.36000061   0.71999997  56.30000305
C     8.05000019   0.44000000  54.93999863
C     9.04999924   0.39000002  54.00000000
C    10.39000034   0.78000003  54.27999878
C    14.55000019   1.30999994  55.31000137
C    15.24000072   0.93999994  54.13000107
C    16.61000061   0.69000000  54.15000153
C     6.67000008  -0.11000000  54.65000153
H     6.22758198   0.54649168  53.90074539
H    11.26000023   0.44000000  52.31999969
H    12.38000011   1.75000000  56.93000031
H     9.92000008   1.10000002  57.63999939
H     7.69000006   0.44000000  57.11000061
H     8.82999992  -0.09999999  53.04999924
H    17.12000084   0.46000001  53.22000122
H     6.05000019  -0.27000001  55.54000092
H     6.84999990  -1.14999998  54.36000061
S    18.43000031   2.34999990  51.68000031
C    21.15999985   2.29999995  51.02000427
C    19.85000038   2.00999999  50.66999817
C    19.47999954   1.57000005  49.36000061
C    20.52000046   1.47000003  48.44999695
C    21.84999847   1.82999992  48.75999832
C    22.86999893   1.70000005  47.77000046
C    24.18000031   1.89999998  48.13000107
C    24.54000092   2.32999992  49.43000031
C    23.59000015   2.47000003  50.41999817
C    22.22999954   2.24000001  50.08999634
C    18.04000092   1.46000004  49.20000076
C    17.35000038   1.98000002  50.31999969
C    15.95999908   2.06999993  50.31000137
C    26.00000000   2.63999987  49.72000122
H    26.28399277   1.99391794  50.55067825
H    21.34000015   2.77999997  51.97000122
H    20.13999939   1.29999995  47.44999695
H    22.55000114   1.35000002  46.79000092
H    24.93000031   1.50999999  47.44999695
H    23.85000038   2.77999997  51.43000031
H    15.44999981   2.51999998  51.16000366
H    26.61000061   2.40999985  48.83999634
H    26.15999985   3.65000010  50.11000061
S    14.85000038   0.82999998  46.72000122
C    12.10999966   0.92000002  47.41000366
C    13.43000031   1.13999999  47.72999573
C    13.76999950   1.66999996  49.02000046
C    12.79999924   2.02999997  49.93000031
C    11.43000031   1.82999992  49.61999893
C    10.44000053   2.37000012  50.48999786
C     9.11000061   2.10999990  50.24000168
C     8.80000019   1.29999995  49.10999680
C     9.75000000   0.82999998  48.22999954
C    11.13000011   1.12000000  48.40999985
C    15.21999931   1.64000010  49.20000076
C    15.93999958   1.16999996  48.08000183
C    17.32999992   1.08999991  48.04999924
C     7.31999969   1.08999991  48.88999939
H     6.94160986   1.51836622  47.96187210
H    11.72999954   0.52999997  46.46999741
H    13.17000008   2.44000006  50.86999893
H    10.80999947   2.86000013  51.38000107
H     8.32999992   2.48000002  50.90000153
H     9.50000000   0.17999999  47.38999939
H    17.88999939   0.64999998  47.22999954
H     6.74000025   1.46000004  49.75000000
H     7.21000004  -0.00000000  48.93000031
