96

S    17.76000023   2.15000010  57.51999664
C    20.43999863   2.25999999  56.77000046
C    19.17000008   1.82999992  56.49000168
C    18.76000023   1.28999996  55.21999741
C    19.72999954   1.00000000  54.27999878
C    21.07999992   1.36000013  54.52000046
C    22.13999939   1.12000000  53.60000229
C    23.43000031   1.52999997  53.81999969
C    23.75000000   2.15000010  55.05000305
C    22.77000046   2.34999990  55.98999786
C    21.40999985   2.00000000  55.76000214
C    17.30999947   1.16999996  55.13999939
C    16.61000061   1.63000000  56.27999878
C    15.22999954   1.69000006  56.39999771
C    25.15999985   2.59999990  55.38999939
H    25.63488197   2.11094260  56.24053574
H    20.82999992   2.82000017  57.62000275
H    19.55999947   0.55000001  53.30999756
H    21.84999847   0.73000002  52.63000107
H    24.23999977   1.36999989  53.11000061
H    23.05999947   3.03999996  56.77999878
H    14.78999996   2.17999983  57.27000427
H    25.76999855   2.44000006  54.50000000
H    25.23999977   3.65999985  55.63999939
S    14.04999924   0.19000000  52.95000076
C    11.35000038   0.31000000  53.54000092
C    12.63000011   0.69000000  53.88999939
C    13.01000023   1.07000005  55.21999741
C    12.05000019   1.35000002  56.17000198
C    10.70000076   1.11000001  55.79999924
C     9.56999969   1.28000009  56.65000153
C     8.28999996   0.93000001  56.30000305
C     7.97999954   0.50000000  54.99000168
C     9.02000046   0.25999999  54.12000275
C    10.34999943   0.56999999  54.51000214
C    14.45000076   1.14999998  55.37000275
C    15.15999985   0.62000000  54.26000214
C    16.54000092   0.64000005  54.09000015
C     6.58999968   0.01000000  54.61000061
H     6.24283743   0.70432550  53.84482574
H    11.18999958  -0.05000000  52.52999878
H    12.20999908   1.76999998  57.15999985
H     9.84000015   1.65999997  57.63999939
H     7.50000000   1.12000000  57.02000046
H     8.86999989  -0.32000002  53.20999908
H    16.94000053   0.45000002  53.09999847
H     5.88000011  -0.02000000  55.44000244
H     6.69000053  -1.00000000  54.19000244
S    14.18000031  -1.62000000  49.71000290
C    11.56999969  -1.90999997  50.40000153
C    12.86999893  -2.20000005  50.76000214
C    13.30999947  -2.76999998  52.00000000
C    12.32999992  -3.15000010  52.88000107
C    10.95999908  -3.01999998  52.52999878
C     9.96000004  -3.32999992  53.47999954
C     8.67000008  -3.09999990  53.06000137
C     8.26000023  -2.53999996  51.81999969
C     9.22999954  -2.13000011  50.93999863
C    10.57999992  -2.38000011  51.29000092
C    14.77000046  -2.70000005  52.04999924
C    15.38000011  -2.05999994  50.94999695
C    16.73999977  -1.75999999  50.97000122
C     6.78999996  -2.49000001  51.45000076
H     6.55610800  -3.34760475  50.81920242
H    11.30000019  -1.30999994  49.54000092
H    12.61000061  -3.49000001  53.88000107
H    10.22999954  -3.75999975  54.43999863
H     7.90000010  -3.51999998  53.70999908
H     8.98999977  -1.65000010  49.99000168
H    17.14999962  -1.23000002  50.12000275
H     6.11000013  -2.56000018  52.30999756
H     6.52999973  -1.58999991  50.90000153
S    18.09999847  -3.07999992  54.41999817
C    20.79000092  -2.56999993  53.75999832
C    19.45000076  -2.40999985  53.47999954
C    19.00000000  -1.81999993  52.25999832
C    19.93000031  -1.46000004  51.31000137
C    21.31000137  -1.66999996  51.58000183
C    22.29999924  -1.15999997  50.70000076
C    23.62999916  -1.36000013  50.97000122
C    24.09000015  -2.02999997  52.14000320
C    23.15999985  -2.52999997  53.02000046
C    21.78999901  -2.21000004  52.81999969
C    17.56999969  -2.00999999  52.06999969
C    16.93000031  -2.69000006  53.13999939
C    15.62000084  -3.15000010  53.06999969
C    25.48000145  -1.61000001  52.55000305
H    25.87826729  -2.07227373  53.45321274
H    21.11000061  -2.92000008  54.73999786
H    19.60000038  -1.15999997  50.31999969
H    21.97999954  -0.50999999  49.88999939
H    24.34999847  -0.76999998  50.40000153
H    23.44000053  -2.87999988  54.01000214
H    15.21999931  -3.81999993  53.81999969
H    25.36000061  -0.51999998  52.63999939
H    26.15999985  -1.90999997  51.73999786
