96

S    17.45000076   1.89999998  57.70999908
C    20.19000053   2.13000011  57.04999924
C    18.90999985   1.76999998  56.72000122
C    18.60999870   1.33000004  55.38000107
C    19.65999985   1.21000004  54.50000000
C    20.97999954   1.61000001  54.80999756
C    22.07999992   1.51999998  53.89999771
C    23.32999992   2.01999998  54.15999985
C    23.57000160   2.50000000  55.47000122
C    22.57999802   2.59999990  56.42000198
C    21.27000046   2.11999989  56.11999893
C    17.17000008   1.25000000  55.14999771
C    16.42000008   1.52999997  56.31999969
C    15.03000069   1.54999995  56.36000061
C    24.96000099   3.00999999  55.79999924
H    25.33609772   2.35714984  56.58767700
H    20.38999939   2.42000008  58.08000183
H    19.61000061   0.97999996  53.43999863
H    22.04000092   1.07000005  52.90999985
H    24.11000061   2.03999996  53.40000153
H    22.65000153   3.08999991  57.38999939
H    14.47000027   1.88999999  57.22999954
H    25.58000183   2.93000007  54.89999771
H    24.99000168   4.05000019  56.13999939
S    13.88000011   0.45000002  52.77999878
C    11.17000008   0.32999998  53.41999817
C    12.46000099   0.56000000  53.82999802
C    12.84000015   1.01999998  55.13999939
C    11.82000065   1.26999998  56.04000092
C    10.47999954   0.93000001  55.72000122
C     9.42000008   1.10000002  56.65000153
C     8.14999962   0.64999998  56.38999939
C     7.82999992   0.19000000  55.08999634
C     8.80999947   0.07000000  54.12000275
C    10.14999962   0.44000000  54.40999985
C    14.27999973   1.14999998  55.25000000
C    15.01000023   0.88999999  54.06000137
C    16.39999962   0.93999994  54.02000046
C     6.40999985  -0.19999999  54.75999832
H     5.95575714   0.54524255  54.10702133
H    10.88000107  -0.09999999  52.45999908
H    12.02999973   1.51999998  57.08000183
H     9.56999969   1.56000006  57.62000275
H     7.36999989   0.79000002  57.14000320
H     8.50000000  -0.22000000  53.11999893
H    16.87999916   0.73000002  53.06999969
H     5.78999996  -0.41999999  55.63000107
H     6.60000038  -1.11000001  54.16999817
S    18.17000008   2.61000013  51.55000305
C    20.81999969   2.75999999  50.87999725
C    19.56999969   2.33999991  50.48999786
C    19.18000031   1.80999994  49.20999908
C    20.10999870   1.92000008  48.18999863
C    21.38999939   2.43000007  48.50000000
C    22.49000168   2.24000001  47.62000275
C    23.80000114   2.50999975  47.91999817
C    24.13000107   3.08999991  49.16999817
C    23.11000061   3.23000002  50.07999802
C    21.76000214   2.84999990  49.82999802
C    17.73999977   1.66999996  49.12000275
C    17.05000114   2.01999998  50.31000137
C    15.65999985   2.15000010  50.27000046
C    25.55999947   3.30000019  49.59999847
H    25.83726883   2.61749172  50.40336990
H    20.88999939   3.16000009  51.88999939
H    19.92000008   1.65000010  47.15000153
H    22.20000076   1.82999992  46.65000153
H    24.54999924   2.34999990  47.14000320
H    23.36999893   3.48000002  51.11000061
H    15.24000072   2.50000000  51.20999908
H    26.15999985   3.19000006  48.68000031
H    25.66999817   4.33999968  49.93999863
S    14.46000004   0.88999999  46.72999954
C    11.73999977   1.21000004  47.36000061
C    13.05999947   1.38999999  47.70000076
C    13.42000008   1.87000012  49.00000000
C    12.39999962   2.10999990  49.91000366
C    11.03999996   1.89999998  49.56999969
C     9.98000050   1.98000002  50.52000046
C     8.71999931   1.49000001  50.30000305
C     8.38999939   0.97999996  49.01000214
C     9.39000034   0.78000003  48.09000015
C    10.67999935   1.34000003  48.29000092
C    14.85999966   1.81999993  49.16999817
C    15.57000065   1.38000000  48.02999878
C    16.95000076   1.29999995  48.02000046
C     6.96000004   0.52999997  48.81999969
H     6.52483845   1.10070372  47.99961472
H    11.71000004   0.54000002  46.50000000
H    12.67000008   2.36000013  50.93000031
H    10.32999992   2.17999983  51.52999878
H     7.96000004   1.38000000  51.05999756
H     9.07999992   0.24000001  47.19999695
H    17.39999962   0.88000000  47.12999725
H     6.37000036   0.64999998  49.73999786
H     6.77999973  -0.54000002  48.63999939
