96

S    17.54999924   1.89999998  57.65999603
C    20.20999908   2.43000007  56.95000076
C    19.00000000   1.85000002  56.63999939
C    18.67000008   1.41000009  55.31999969
C    19.70000076   1.28999996  54.40999985
C    20.98999977   1.77999997  54.75000000
C    21.98999786   1.51999998  53.76999664
C    23.29999924   1.86000001  54.02000046
C    23.57000160   2.59999990  55.20000076
C    22.62000084   2.84000015  56.17000198
C    21.28000069   2.38000011  56.02000427
C    17.22999954   1.28999996  55.10000229
C    16.48999977   1.59999990  56.25999832
C    15.11000061   1.70000005  56.33999634
C    24.96000099   3.17000008  55.40000153
H    25.41672897   2.54913211  56.17073059
H    20.45999908   2.76999998  57.95000076
H    19.51000023   0.88000000  53.41999817
H    21.73000145   0.94999999  52.88000107
H    24.11000061   1.74000001  53.30999756
H    23.01000214   3.32999992  57.05999756
H    14.56999969   1.89999998  57.27000427
H    25.43000031   3.08999991  54.40999985
H    24.92000198   4.26000023  55.56999969
S    14.04000092   0.67000002  52.65999603
C    11.32999992   0.45000002  53.48999786
C    12.64000034   0.82000005  53.74000168
C    12.96000004   1.28999996  55.05000305
C    11.96000004   1.43999994  56.00000000
C    10.59999943   1.22000003  55.70000076
C     9.55000019   1.41000009  56.65000153
C     8.30000019   0.90000004  56.38999939
C     7.99000025   0.25000000  55.17000198
C     8.97999954   0.09000000  54.22999954
C    10.29000092   0.59999996  54.43999863
C    14.40000057   1.50000000  55.14999771
C    15.11999989   1.13999999  53.99000168
C    16.48999977   0.94999999  53.95999908
C     6.54999971  -0.16000001  54.94999695
H     6.01669884   0.49418211  54.26026154
H    11.10000038  -0.12000000  52.60000229
H    12.25000000   1.66999996  57.02000046
H     9.85999966   1.56000006  57.68000031
H     7.55000019   0.96000004  57.18000031
H     8.78000069  -0.24000001  53.20999908
H    17.02999878   0.46999997  53.15000153
H     6.00000000  -0.09999999  55.90000153
H     6.65000010  -1.16999996  54.54000092
S    13.89000034  -1.52999997  49.82999802
C    11.23000050  -2.03999996  50.58000183
C    12.56999969  -2.16999984  50.83000183
C    13.02000046  -2.84999990  52.01000214
C    12.10999966  -3.28000021  52.95999908
C    10.72000027  -3.12000012  52.75000000
C     9.72000027  -3.68999982  53.60000229
C     8.38000011  -3.49000001  53.36999893
C     7.92999983  -2.86000013  52.18000031
C     8.88000011  -2.42000008  51.27999878
C    10.27999973  -2.50000000  51.52999878
C    14.46000004  -2.71000004  52.15999985
C    15.06000042  -2.06999993  51.04000092
C    16.39999962  -1.71000004  51.03000259
C     6.47000027  -2.79000020  51.79000092
H     6.18529987  -3.55157232  51.06401443
H    10.90000057  -1.42000008  49.75000000
H    12.31999969  -3.56999993  53.97999573
H    10.01999950  -4.39000034  54.36999893
H     7.73999977  -3.76999998  54.20000076
H     8.55000019  -2.05999994  50.31000137
H    16.69999886  -1.07000005  50.20999908
H     5.89999962  -2.94000006  52.71999741
H     6.28999996  -1.75999999  51.45999908
S    17.87999916  -3.15000010  54.36999893
C    20.43999863  -2.23000002  53.94000244
C    19.11999893  -2.16000009  53.57999802
C    18.63999939  -1.66999996  52.31999969
C    19.59000015  -1.21000004  51.43000031
C    20.95999908  -1.13999999  51.81000137
C    21.90999985  -0.76999998  50.81999969
C    23.25000000  -0.94999999  51.04000092
C    23.75000000  -1.48000002  52.25999832
C    22.81999969  -1.81999993  53.22000122
C    21.42000008  -1.71000004  53.04999924
C    17.22999954  -1.99000001  52.12999725
C    16.62999916  -2.69000006  53.20000076
C    15.29999924  -3.08999991  53.22000122
C    25.20999908  -1.82999992  52.36000061
H    25.61561966  -1.31052184  53.22816849
H    20.81000137  -2.79999995  54.79000092
H    19.34000015  -0.96000004  50.40000153
H    21.54000092  -0.34999999  49.87999725
H    23.95999908  -0.69000000  50.26000214
H    23.12999916  -2.25999999  54.16999817
H    14.92000008  -3.63000011  54.08000183
H    25.69999886  -1.50000000  51.44000244
H    25.40999985  -2.91000009  52.35000229
