96

S    17.36999893   2.34999990  57.48000336
C    20.05000114   2.51999998  56.77000046
C    18.81000137   1.99000001  56.50000000
C    18.50000000   1.35000002  55.26000214
C    19.54000092   1.10000002  54.38000107
C    20.86000061   1.53999996  54.61999893
C    21.93000031   1.13000000  53.77999878
C    23.19000053   1.64000010  54.00000000
C    23.39999962   2.50999975  55.10000229
C    22.42000198   2.73999977  56.04999924
C    21.09000015   2.29999995  55.81999969
C    17.05999947   1.25999999  55.06999969
C    16.31999969   1.77999997  56.16000366
C    14.93999958   1.92000008  56.11999893
C    24.80999947   3.00000000  55.31999969
H    25.31654358   2.35790372  56.04057312
H    20.27000046   3.12999988  57.63999939
H    19.40999985   0.43000001  53.53000259
H    21.73999977   0.51999998  52.90000153
H    24.01000023   1.19000006  53.43999863
H    22.77000046   3.25000000  56.93999863
H    14.35999966   2.28999996  56.95999908
H    25.38999939   2.96999979  54.38000107
H    24.73999977   4.03999996  55.68000031
S    13.85000038   0.44000000  52.62000275
C    11.11999989   0.38000000  53.31999969
C    12.42000008   0.69999999  53.63999939
C    12.79999924   1.43999994  54.80999756
C    11.79999924   1.75999999  55.70999908
C    10.46000004   1.35000002  55.52000046
C     9.38000011   1.57000005  56.43000031
C     8.07999992   1.21000004  56.17000198
C     7.81000042   0.52999997  54.94999695
C     8.78999996   0.27000001  54.02000046
C    10.13000011   0.67000002  54.29000092
C    14.23999977   1.56000006  54.95999908
C    14.96999931   1.03999996  53.86000061
C    16.34000015   0.87000000  53.93000031
C     6.42000008   0.02000000  54.66999817
H     5.85256863   0.58743107  53.93233871
H    10.77000046  -0.19999999  52.47000122
H    12.02000046   2.17999983  56.69000244
H     9.57999992   1.99000001  57.41000366
H     7.31999969   1.28000009  56.93999863
H     8.56000042  -0.19999999  53.06999969
H    16.97000122   0.46000001  53.13999939
H     5.91000032   0.05000000  55.63999939
H     6.50000000  -1.02999997  54.38999939
S    14.48999977  -1.80999994  49.80999756
C    11.82000065  -2.30999994  50.47000122
C    13.15000057  -2.38000011  50.83000183
C    13.61999989  -2.86999989  52.09000015
C    12.69000053  -3.38999987  52.97000122
C    11.31999969  -3.32999992  52.63999939
C    10.29999924  -3.77999997  53.53000259
C     8.97999954  -3.49000001  53.27999878
C     8.57999992  -2.82999992  52.09000015
C     9.48999977  -2.54999995  51.09000397
C    10.86999989  -2.68000007  51.44000244
C    15.06999969  -2.75000000  52.18999863
C    15.69000053  -2.14000010  51.07999802
C    17.02000046  -1.72999990  51.18999863
C     7.13999987  -2.42000008  51.88999939
H     6.65525532  -2.89048743  51.03456879
H    11.51000023  -1.94000006  49.48999786
H    12.93000031  -3.76999998  53.95999908
H    10.59000015  -4.18000031  54.50000000
H     8.27999973  -3.95000005  53.97999573
H     9.22999954  -2.19000006  50.10000229
H    17.46999931  -1.24000001  50.33000183
H     6.58999968  -2.77999997  52.77000046
H     7.00999975  -1.33000004  51.90000153
S    18.38000107  -3.21000004  54.59999847
C    21.04000092  -2.72000027  53.87000275
C    19.70000076  -2.57999992  53.59000397
C    19.23999977  -2.07999992  52.32999802
C    20.15999985  -1.64000010  51.38999939
C    21.54999924  -1.72000003  51.66999817
C    22.55000114  -1.22000003  50.79000092
C    23.88999939  -1.14999998  51.09000397
C    24.30999947  -1.53999996  52.38999939
C    23.38000107  -2.09999990  53.22999954
C    21.98999786  -2.23000002  52.94000244
C    17.79000092  -2.05999994  52.30999756
C    17.17000008  -2.73999977  53.39000320
C    15.80999947  -2.99000001  53.36000061
C    25.76999855  -1.26999998  52.65999603
H    26.08402634  -1.51979399  53.67345047
H    21.21999931  -3.23000002  54.80999756
H    19.85000038  -1.29999995  50.40000153
H    22.18000031  -0.99000001  49.79999924
H    24.54000092  -0.94999999  50.25000000
H    23.61999893  -2.32999992  54.27000046
H    15.31999969  -3.28999996  54.27999878
H    25.88999939  -0.20999999  52.37999725
H    26.48999977  -1.76999998  51.98999786
