96

S    17.60000038   1.89999998  57.72999573
C    20.25000000   2.11999989  57.02999878
C    18.98999977   1.72000003  56.65000153
C    18.55999947   1.21000004  55.38000107
C    19.59000015   1.13000000  54.45999908
C    20.92000008   1.42000008  54.82999802
C    21.98999786   1.19000006  53.92000198
C    23.23999786   1.72999990  54.09999847
C    23.62999916   2.22000003  55.37000275
C    22.65999985   2.36000013  56.33999634
C    21.30000114   2.03999996  56.07999802
C    17.11000061   1.05999994  55.28999710
C    16.43000031   1.50000000  56.45000076
C    15.05000019   1.67999995  56.55000305
C    25.10000038   2.44000006  55.63999939
H    25.45453835   1.99328041  56.56889343
H    20.52000046   2.50000000  58.01000214
H    19.50000000   0.63000000  53.50000000
H    21.70000076   0.79999995  52.94000244
H    23.92999840   1.80000007  53.26000214
H    22.89999962   2.89999986  57.25999832
H    14.55000019   2.03999996  57.44999695
H    25.81000137   2.19000006  54.84000397
H    25.29000092   3.51000023  55.70000076
S    13.88000011   0.56000000  52.88999939
C    11.18000031   0.28999999  53.62999725
C    12.46999931   0.63000000  53.96999741
C    12.86000061   1.10000002  55.27000046
C    11.87999916   1.23000002  56.23000336
C    10.52999973   0.97999996  55.86999893
C     9.50000000   1.01999998  56.84000015
C     8.19000053   0.75000000  56.52999878
C     7.78999996   0.23000000  55.27000046
C     8.78999996   0.09999999  54.34000015
C    10.14000034   0.46999997  54.58000183
C    14.28999996   1.30999994  55.44000244
C    14.96000099   0.97000003  54.23999786
C    16.32999992   0.71999997  54.18000031
C     6.35999966  -0.14000000  54.92000198
H     5.87617493   0.47189629  54.15868759
H    10.93000031   0.02000000  52.61000061
H    12.18000031   1.52999997  57.22999954
H     9.78999996   1.25000000  57.85999680
H     7.37999964   0.97999996  57.22000122
H     8.61999989  -0.35999998  53.36999893
H    16.69999886   0.50000000  53.18999863
H     5.80999947   0.03000000  55.86000061
H     6.48999977  -1.21000004  54.75000000
S    17.97000122   2.28999996  51.56999969
C    20.65999985   2.53999996  50.86000061
C    19.37999916   2.21000004  50.48999786
C    19.00000000   1.90999997  49.13999939
C    20.00999832   1.74000001  48.20999908
C    21.35000038   1.97000003  48.59000397
C    22.46000099   1.93000007  47.70000076
C    23.74000168   2.30999994  48.02000046
C    24.05999947   2.82999992  49.29999924
C    23.00000000   2.94000006  50.17000198
C    21.70000076   2.40999985  49.91000366
C    17.56000137   1.69000006  49.00000000
C    16.87999916   2.09000015  50.18000031
C    15.50000000   2.19000006  50.24000168
C    25.43999863   3.35000014  49.61999893
H    26.03868675   2.62302351  50.16879654
H    20.76000023   3.00000000  51.84000015
H    19.70000076   1.50999999  47.18999863
H    22.23999977   1.87999988  46.63000107
H    24.44000053   2.39999986  47.19999695
H    23.05999947   3.45000005  51.12999725
H    15.01999950   2.26999998  51.20999908
H    25.95000076   3.61999989  48.68000031
H    25.32999992   4.30000019  50.14999771
S    14.32999992   0.82999998  46.66999817
C    11.65999985   0.79999995  47.45999908
C    12.94000053   1.24000001  47.69000244
C    13.32999992   1.81999993  48.94000244
C    12.39999962   1.92000008  49.95999908
C    11.03999996   1.59999990  49.73999786
C    10.01999950   1.63000000  50.72999954
C     8.73999977   1.22000003  50.45999908
C     8.38000011   0.71999997  49.18000031
C     9.38000011   0.50000000  48.26000214
C    10.67999935   1.03999996  48.46000290
C    14.78000069   1.84000003  49.09000015
C    15.44999981   1.38000000  47.93000031
C    16.82999992   1.29999995  47.87000275
C     6.94000006   0.41000003  48.88000107
H     6.64934492   0.96295345  47.98677063
H    11.56000042   0.05000000  46.68000031
H    12.81999969   2.14000010  50.93999863
H    10.19999981   1.97000003  51.75000000
H     7.96999979   1.39999998  51.20999908
H     9.25000000  -0.12000000  47.37999725
H    17.31999969   1.03999996  46.93999863
H     6.34999990   0.73000002  49.73999786
H     6.90000010  -0.69000000  48.81000137
