96

S    17.56000137   1.95999992  57.70000076
C    20.29000092   1.89999998  57.02999878
C    18.98999977   1.57000005  56.72999954
C    18.60999870   1.21000004  55.38999939
C    19.57999992   0.92000002  54.45999908
C    20.89999962   1.31999993  54.79000092
C    21.90999985   1.15999997  53.80000305
C    23.23999786   1.43000007  54.02000046
C    23.64999962   1.93000007  55.27999878
C    22.70999908   2.10999990  56.26999664
C    21.32999802   1.80000007  56.06999969
C    17.17000008   1.18000007  55.19000244
C    16.46999931   1.64000010  56.32999802
C    15.10000038   1.80000007  56.44000244
C    25.06999969   2.38000011  55.56000137
H    25.59638214   1.76826024  56.29266357
H    20.52000046   2.56000018  57.87000275
H    19.40999985   0.79999995  53.39000320
H    21.59000015   0.75000000  52.84999847
H    24.07999992   1.30999994  53.33000183
H    23.05999947   2.44000006  57.25000000
H    14.63999939   2.24000001  57.31999969
H    25.61000061   2.37000012  54.59999847
H    25.00999832   3.40999985  55.93000031
S    13.90999985   0.43000001  52.87000275
C    11.18999958   0.52999997  53.52000427
C    12.48999977   0.79999995  53.88000107
C    12.86000061   1.33000004  55.15999603
C    11.82000065   1.41000009  56.07999802
C    10.47000027   1.13999999  55.77000046
C     9.48999977   1.15999997  56.79999924
C     8.19000053   0.79000002  56.52000046
C     7.85000038   0.43000001  55.19000244
C     8.76000023   0.45000002  54.15000153
C    10.13000011   0.71000004  54.43999863
C    14.28999996   1.47000003  55.34000015
C    14.96000099   0.97999996  54.19000244
C    16.34000015   0.82999998  54.12000275
C     6.48999977  -0.11000000  54.82999802
H     5.89420891   0.59927481  54.25548553
H    11.03000069   0.11000000  52.52999878
H    12.09000015   1.70000005  57.09000015
H     9.85999966   1.38000000  57.80000305
H     7.39000034   0.81000000  57.25999832
H     8.51000023   0.03000000  53.18000031
H    16.80999947   0.62000000  53.15999985
H     5.92000008  -0.44000000  55.72000122
H     6.61000013  -0.93000001  54.12000275
S    17.67000008   2.56000018  51.79000092
C    20.32999992   2.46000004  51.05999756
C    19.03000069   2.16999984  50.72000122
C    18.67000008   1.63000000  49.43999863
C    19.70000076   1.38999999  48.54999924
C    21.04999924   1.71000004  48.85000229
C    22.11999893   1.51999998  47.93000031
C    23.40999985   1.87000012  48.26000214
C    23.72999954   2.47000003  49.51000214
C    22.72000122   2.59000015  50.44000244
C    21.38999939   2.16999984  50.17000198
C    17.21999931   1.67999995  49.29999924
C    16.57999992   2.23000002  50.43000031
C    15.19999981   2.40999985  50.47999954
C    25.10000038   3.05999994  49.77000427
H    25.59185410   2.52537680  50.58263016
H    20.43999863   2.93000007  52.04000092
H    19.37999916   0.82999998  47.68000031
H    21.80999947   1.08999991  46.97999954
H    24.13999939   2.00999999  47.48000336
H    22.95000076   2.94999981  51.43000031
H    14.73999977   2.79000020  51.38000107
H    25.65000153   2.99000001  48.82999802
H    24.94999886   4.09000015  50.11000061
S    14.04999924   0.68000007  47.09999847
C    11.36000061   0.69999999  47.77999878
C    12.64999962   1.07000005  48.11000061
C    12.98999977   1.72000003  49.34000015
C    12.02999973   1.89999998  50.31999969
C    10.72000027   1.46000004  50.00999832
C     9.61000061   1.59999990  50.89000320
C     8.28999996   1.43999994  50.54000092
C     7.95000029   0.82999998  49.31000137
C     8.97999954   0.65999997  48.40000153
C    10.32999992   0.93000001  48.73000336
C    14.40999985   2.01999998  49.38999939
C    15.11000061   1.48000002  48.27000046
C    16.48999977   1.36999989  48.13999939
C     6.52999973   0.67000002  48.82999802
H     6.17364550   1.16176915  47.92486191
H    11.17000008   0.22000000  46.83000183
H    12.23000050   2.26999998  51.31999969
H     9.88000011   2.02999997  51.84999847
H     7.50999975   1.94000006  51.10000229
H     8.76999950   0.28999999  47.39999771
H    16.95000076   0.86000001  47.29999924
H     5.98000002   1.10000002  49.68000031
H     6.21999979  -0.38000000  48.80000305
