96

S    17.60000038   2.48000002  57.51999664
C    20.34000015   2.40999985  56.86999893
C    19.03000069   2.15000010  56.52999878
C    18.71000099   1.49000001  55.30000305
C    19.72999954   1.16999996  54.43000031
C    21.07999992   1.46000004  54.75000000
C    22.09000015   1.18000007  53.77999878
C    23.38000107   1.58000004  54.01000214
C    23.68999863   2.28999996  55.20000076
C    22.73999977   2.57999992  56.16000366
C    21.40000153   2.14000010  55.97000122
C    17.28999901   1.15999997  55.20000076
C    16.56999969   1.80000007  56.24000168
C    15.19000053   1.92000008  56.32999802
C    25.09000015   2.75999999  55.48999786
H    25.55265427   2.04110289  56.16619110
H    20.50000000   2.89000010  57.83000183
H    19.34000015   0.88999999  53.44999695
H    21.84999847   0.74000001  52.81000137
H    24.05999947   1.62000000  53.16999817
H    23.05000114   3.12999988  57.04999924
H    14.61999989   2.27999997  57.18000031
H    25.69999886   2.96999979  54.59999847
H    25.02000046   3.72000003  56.00999832
S    14.14999962   0.35999998  52.80000305
C    11.43000031   0.08000001  53.60000229
C    12.71999931   0.50999999  53.83999634
C    13.09000015   1.14999998  55.06000137
C    12.06999969   1.38000000  55.96000290
C    10.72000027   1.01999998  55.70000076
C     9.67000008   1.25999999  56.63000107
C     8.34999943   1.00999999  56.33999634
C     7.97999954   0.31000000  55.15999603
C     8.98999977   0.07000000  54.25000000
C    10.34999943   0.45000002  54.43000031
C    14.51000023   1.44999993  55.20000076
C    15.21999931   0.88999999  54.10999680
C    16.61000061   0.79000002  54.02999878
C     6.52999973   0.01000000  54.85000229
H     6.07099867   0.46900132  53.97436905
H    11.06999969  -0.34000003  52.67000198
H    12.13000107   1.72999990  56.98999786
H     9.89000034   1.70000005  57.60000229
H     7.59999990   1.35000002  57.04999924
H     8.82000065  -0.28999999  53.23999786
H    17.12000084   0.73000002  53.08000183
H     5.93999958   0.22000000  55.75000000
H     6.48999977  -1.08000004  54.69999695
S    18.50000000   2.63999987  51.75000000
C    21.25999832   2.64999986  51.11000061
C    19.96000099   2.36000013  50.77999878
C    19.63999939   1.88999999  49.45999908
C    20.62000084   1.72000003  48.50000000
C    21.97000122   2.01999998  48.81000137
C    23.00000000   1.67999995  47.90000153
C    24.30000114   1.87999988  48.30999756
C    24.61000061   2.50999975  49.54999924
C    23.62999916   2.79000020  50.47999954
C    22.27000046   2.53999996  50.12000275
C    18.22000122   1.61000001  49.34000015
C    17.45000076   2.02999997  50.45999908
C    16.06999969   1.95999992  50.59000015
C    26.05999947   2.66000009  49.93000031
H    26.30162430   2.23360491  50.90360260
H    21.50000000   2.98000002  52.11999893
H    20.36000061   1.25000000  47.56000137
H    22.79000092   1.16999996  46.95999908
H    25.09000015   1.69000006  47.60000229
H    23.88000107   3.00999999  51.51000214
H    15.47999954   2.48000002  51.35000229
H    26.70999908   2.19000006  49.18000031
H    26.18000031   3.75000000  49.94999695
S    15.15999985   0.76999998  46.86999893
C    12.39999962   0.82999998  47.32999802
C    13.68000031   1.04999995  47.80000305
C    14.01000023   1.48000002  49.13000107
C    12.97000027   1.69000006  50.00999832
C    11.64000034   1.50000000  49.56999969
C    10.55999947   1.76999998  50.45000076
C     9.26000023   1.44999993  50.17000198
C     8.97000027   1.01999998  48.85000229
C     9.96999931   0.78000003  47.93000031
C    11.32999992   1.04999995  48.22999954
C    15.43000031   1.48000002  49.45000076
C    16.15999985   1.22000003  48.26000214
C    17.54999924   1.15999997  48.20000076
C     7.55999994   0.51999998  48.60000229
H     6.92619133   1.12532282  47.95195007
H    12.28000069   0.45000002  46.31999969
H    13.09000015   1.98000002  51.04999924
H    10.80000019   2.16999984  51.44000244
H     8.55000019   1.39999998  50.98999786
H     9.81000042   0.25000000  47.00000000
H    18.17000008   0.87000000  47.36000061
H     7.09999990   0.34000003  49.58000183
H     7.65999985  -0.50000000  48.20000076
