96

S    17.31999969   2.00999999  57.50999832
C    20.10000038   2.00999999  56.88999939
C    18.78999901   1.77999997  56.53999710
C    18.43000031   1.25999999  55.26000214
C    19.47999954   1.01999998  54.40000153
C    20.84000015   1.25000000  54.68999863
C    21.90999985   0.99000001  53.79000092
C    23.22000122   1.25999999  54.10999680
C    23.54999924   1.79000008  55.38000107
C    22.53999901   1.98000002  56.29000092
C    21.17000198   1.80999994  55.97000122
C    16.98999977   1.19000006  55.06000137
C    16.21999931   1.64000010  56.17000198
C    14.84000015   1.74000001  56.26999664
C    24.92000198   2.33999991  55.70999908
H    25.56542587   1.69457459  56.30577850
H    20.36999893   2.32999992  57.90000153
H    19.22999954   0.78000003  53.36999893
H    21.63000107   0.62000000  52.80000305
H    23.95000076   1.00000000  53.34000015
H    22.70999908   2.47000003  57.25000000
H    14.30999947   2.07999992  57.15999985
H    25.36000061   2.64999986  54.75000000
H    24.84999847   3.30000019  56.23000336
S    13.81000042   0.43000001  52.65999603
C    11.11999989   0.08000001  53.46000290
C    12.41000080   0.48000002  53.74000168
C    12.71999931   1.08999991  55.00000000
C    11.69000053   1.34000003  55.87999725
C    10.34000015   0.97000003  55.63000107
C     9.26000023   1.19999993  56.52000046
C     7.97999954   0.79999995  56.24000168
C     7.71000004   0.08000001  55.04000092
C     8.73999977  -0.14999999  54.15000153
C    10.07999992   0.27000001  54.38999939
C    14.15999985   1.29999995  55.13999939
C    14.88999939   0.93000001  53.97999573
C    16.27000046   0.75000000  53.94000244
C     6.32000017  -0.32999998  54.62999725
H     5.79634380   0.45548469  54.08511353
H    10.93999958  -0.41999999  52.50999832
H    11.87999916   1.72999990  56.86999893
H     9.52000046   1.72999990  57.43999863
H     7.16000032   1.00999999  56.91999817
H     8.56999969  -0.82000005  53.30999756
H    16.77999878   0.31000000  53.09000015
H     5.68000031  -0.69000000  55.44000244
H     6.39999962  -1.13000000  53.88000107
S    13.67000008  -1.39999998  49.85000229
C    11.03999996  -1.97000003  50.51000214
C    12.36999989  -2.25000000  50.72000122
C    12.84999943  -2.96999979  51.84999847
C    11.94000053  -3.52999973  52.74000168
C    10.57000065  -3.42999983  52.43000031
C     9.48999977  -3.94000006  53.22000122
C     8.15999985  -3.95000005  52.88000107
C     7.75000000  -3.21000004  51.73999786
C     8.71000004  -2.56999993  51.00000000
C    10.10000038  -2.70000005  51.29000092
C    14.28999996  -2.79999995  52.01000214
C    14.88000011  -1.99000001  51.00000000
C    16.20000076  -1.57000005  51.09000397
C     6.28999996  -2.87999988  51.52000046
H     5.91954327  -3.40006495  50.63660049
H    10.72000027  -1.38000000  49.65000153
H    12.28000069  -3.96000004  53.68000031
H     9.71000004  -4.50000000  54.13000107
H     7.53000021  -4.25000000  53.70999908
H     8.53999996  -1.88999999  50.17000198
H    16.59000015  -0.74000001  50.52000046
H     5.63000011  -3.05999994  52.37999725
H     6.21999979  -1.81999993  51.25999832
S    17.65999985  -3.42000008  54.25000000
C    20.29000092  -2.70000005  53.62999725
C    18.95000076  -2.59000015  53.34999847
C    18.46999931  -1.80000007  52.25999832
C    19.34999847  -1.13000000  51.44000244
C    20.73999786  -1.36000013  51.62000275
C    21.68000031  -0.99000001  50.61999893
C    23.00000000  -1.35000002  50.79000092
C    23.51000023  -2.02999997  51.91999817
C    22.60999870  -2.43000007  52.88000107
C    21.22999954  -2.17999983  52.70000076
C    17.05999947  -2.11999989  52.04999924
C    16.46000099  -2.94999981  53.02999878
C    15.13000011  -3.35000014  52.97999954
C    24.97999954  -2.21000004  52.23999786
H    25.29378510  -2.06737018  53.27406693
H    20.63999939  -3.25999999  54.48999786
H    19.09000015  -0.74000001  50.45999908
H    21.31999969  -0.64999998  49.65000153
H    23.69999886  -0.99000001  50.02999878
H    22.90999985  -2.82999992  53.85000229
H    14.78000069  -4.15000010  53.61999893
H    25.52000046  -1.52999997  51.58000183
H    25.36999893  -3.19999981  51.95000076
