96

S    17.61999893   1.87000012  57.48000336
C    20.32999992   1.92000008  56.84000015
C    19.04000092   1.61000001  56.45999908
C    18.76000023   1.19999993  55.12000275
C    19.76000023   1.00999999  54.18000031
C    21.07000160   1.39999998  54.55999756
C    22.17000008   1.44999993  53.64999771
C    23.44000053   1.84000003  54.01000214
C    23.64999962   2.39999986  55.30000305
C    22.63999939   2.36000013  56.23000336
C    21.40000153   1.75999999  55.90999985
C    17.31999969   1.07000005  54.95999908
C    16.57999992   1.50000000  56.09000397
C    15.19999981   1.61000001  56.11000061
C    25.09000015   2.73000002  55.65000153
H    25.53043175   2.07645631  56.40299606
H    20.53999901   2.43000007  57.77000046
H    19.48999977   0.51999998  53.25000000
H    22.00000000   1.05999994  52.64999771
H    24.26000214   1.76999998  53.29999924
H    22.69000053   2.80999994  57.22000122
H    14.67000008   1.79000008  57.04999924
H    25.72999954   2.76999998  54.75999832
H    25.10999870   3.76999998  56.00000000
S    14.11000061  -0.03000000  52.67000198
C    11.42000008  -0.02000000  53.22999954
C    12.68000031   0.32999998  53.66000366
C    13.00000000   1.02999997  54.86999893
C    11.96000004   1.19000006  55.77000046
C    10.65999985   0.75000000  55.41999817
C     9.59999943   0.93999994  56.33999634
C     8.28999996   0.71999997  55.98999786
C     8.01999950   0.04000000  54.77000427
C     9.01000023  -0.20999999  53.83999634
C    10.34999943   0.16000001  54.13999939
C    14.44000053   1.11000001  55.04000092
C    15.17000008   0.59999996  53.94000244
C    16.55999947   0.59000003  53.88999939
C     6.57000017  -0.23000000  54.45000076
H     6.13686609   0.39484888  53.66893768
H    11.26999950  -0.14999999  52.15999985
H    12.07999992   1.52999997  56.79999924
H     9.96999931   1.43000007  57.23999786
H     7.42999983   1.00000000  56.59999847
H     8.73000050  -0.75000000  52.94000244
H    17.19000053   0.23000000  53.08000183
H     6.01999998  -0.08000001  55.38999939
H     6.40999985  -1.28000009  54.20999908
S    14.30999947  -1.88999999  49.68999863
C    11.57999992  -2.25000000  50.27999878
C    12.89999962  -2.49000001  50.59000015
C    13.27999973  -3.19999981  51.77999878
C    12.25000000  -3.60000014  52.62000275
C    10.88999939  -3.47000003  52.25999832
C     9.89999962  -3.94000006  53.16999817
C     8.56999969  -3.76999998  52.87000275
C     8.21000004  -3.10999990  51.65999985
C     9.13000011  -2.66000009  50.75000000
C    10.52000046  -2.82000017  51.03000259
C    14.70999908  -3.17000008  52.01000214
C    15.36999893  -2.42000008  51.00999832
C    16.69000053  -1.99000001  51.12999725
C     6.72999954  -2.86999989  51.45000076
H     6.36574697  -3.13426185  50.45723343
H    11.26999950  -1.50999999  49.54999924
H    12.56000042  -3.91999984  53.61000061
H    10.19999981  -4.44999981  54.08000183
H     7.85000038  -4.30999994  53.47000122
H     8.86999989  -2.13000011  49.82999802
H    17.20999908  -1.26999998  50.51000214
H     6.26999950  -3.47000003  52.25000000
H     6.50000000  -1.81999993  51.68000031
S    17.86000061  -3.52999973  54.65000153
C    20.55000114  -2.89000010  54.13999939
C    19.22000122  -2.80999994  53.77999878
C    18.79999924  -2.19000006  52.56000137
C    19.75000000  -1.65000010  51.70999908
C    21.14000130  -1.72999990  52.00000000
C    22.14999962  -1.26999998  51.11000061
C    23.47999954  -1.43000007  51.39999771
C    23.90999985  -2.11999989  52.56000137
C    22.90999985  -2.50999975  53.41999817
C    21.51000023  -2.31999993  53.26000214
C    17.38000107  -2.36000013  52.29000092
C    16.77000046  -3.14000010  53.30999756
C    15.44000053  -3.53999996  53.15000153
C    25.36000061  -2.40999985  52.90999985
H    25.83157921  -1.76693916  53.65309143
H    20.95999908  -3.44000006  54.98000336
H    19.44000053  -1.13999999  50.79999924
H    21.83000183  -0.79000002  50.18000031
H    24.07999992  -1.34000003  50.50000000
H    23.25000000  -2.99000001  54.33000183
H    14.96000099  -4.13000011  53.92000198
H    25.90999985  -2.47000003  51.95999908
H    25.22999954  -3.42999983  53.29999924
