96

S    17.57999992   2.17999983  57.74000168
C    20.22000122   2.24000001  57.04999924
C    18.96999931   1.79000008  56.70000076
C    18.53000069   1.31999993  55.43000031
C    19.56999969   1.14999998  54.54000092
C    20.92000008   1.43999994  54.86000061
C    21.97000122   1.00999999  54.00000000
C    23.26999855   1.39999998  54.22000122
C    23.59000015   2.09000015  55.40999985
C    22.63999939   2.29999995  56.38999939
C    21.27000046   2.07999992  56.10000229
C    17.07999992   1.30999994  55.30000305
C    16.42000008   1.74000001  56.47999573
C    15.03999901   1.75000000  56.63000107
C    25.03000069   2.48000002  55.65000153
H    25.44949532   1.84720302  56.43210983
H    20.39999962   2.73000002  58.00000000
H    19.51000023   0.39000002  53.75999832
H    21.70000076   0.44000000  53.11000061
H    23.98999977   0.96000004  53.54000092
H    22.98999977   2.72000027  57.32999802
H    14.56999969   2.16999984  57.51999664
H    25.59000015   2.43000007  54.71000290
H    24.84999847   3.50000000  56.00000000
S    13.82999992   0.27000001  53.11999893
C    11.16000080   0.46999997  53.70999908
C    12.43999958   0.83999997  54.06000137
C    12.84000015   1.28000009  55.35999680
C    11.85999966   1.46000004  56.31000137
C    10.52000046   1.15999997  55.97000122
C     9.50000000   1.15999997  56.95999908
C     8.21000004   0.74000001  56.72999954
C     7.90000010   0.24000001  55.44000244
C     8.82999992   0.14000000  54.41999817
C    10.14000034   0.64000005  54.68000031
C    14.28999996   1.31999993  55.52999878
C    14.94999981   0.81000000  54.38999939
C    16.34000015   0.78000003  54.23999786
C     6.48000002  -0.14000000  55.08999634
H     6.03879881   0.33678192  54.21471405
H    10.88000107  -0.04000000  52.80000305
H    12.15999985   1.59999990  57.35000229
H     9.76000023   1.50999999  57.95999908
H     7.46999979   0.82999998  57.51999664
H     8.50000000  -0.25999999  53.47000122
H    16.61000061   0.25000000  53.33000183
H     5.82999992  -0.01000000  55.96000290
H     6.51999998  -1.21000004  54.85000229
S    17.82999992   2.09999990  51.81999969
C    20.50000000   2.36000013  51.06999969
C    19.22999954   1.94000006  50.75000000
C    18.86999893   1.47000003  49.43999863
C    19.82999992   1.35000002  48.46000290
C    21.12999916   1.82999992  48.75000000
C    22.21999931   1.72000003  47.84999847
C    23.52000046   2.09000015  48.11999893
C    23.82999802   2.61000013  49.40000153
C    22.80999947   2.75000000  50.31000137
C    21.45999908   2.43000007  50.01999664
C    17.42000008   1.48000002  49.29999924
C    16.70999908   1.87999988  50.45999908
C    15.32999992   1.92000008  50.61999893
C    25.20999908   3.07999992  49.82999802
H    25.62270737   2.61748266  50.72657394
H    20.76999855   2.69000006  52.05999756
H    19.52999878   0.78000003  47.57999802
H    21.87000084   1.36999989  46.88000107
H    24.30000114   2.00000000  47.36999893
H    23.08000183   2.92000008  51.35000229
H    14.98000050   2.50000000  51.45999908
H    25.90999985   3.00000000  48.99000168
H    25.22000122   4.15999985  50.00000000
S    14.14999962   1.00999999  46.95999908
C    11.46999931   0.64000005  47.64999771
C    12.71000004   1.10000002  48.00000000
C    13.04999924   1.52999997  49.33000183
C    12.01000023   1.65999997  50.22999573
C    10.71000004   1.28000009  49.84000397
C     9.59000015   1.43999994  50.70999908
C     8.30999947   1.08000004  50.35999680
C     8.01999950   0.69999999  49.02000046
C     9.03999996   0.45000002  48.13000107
C    10.36000061   0.83999997  48.50999832
C    14.48999977   1.57000005  49.55999756
C    15.19999981   1.30999994  48.36000061
C    16.57999992   1.28999996  48.20000076
C     6.58999968   0.29999998  48.74000168
H     6.09249544   0.83304036  47.92977905
H    11.13999939   0.14999999  46.72999954
H    12.18000031   2.09000015  51.22000122
H     9.75000000   1.76999998  51.72999954
H     7.53999996   1.11000001  51.12999725
H     8.80999947  -0.06000000  47.19999695
H    17.04000092   1.13000000  47.22999954
H     5.98999977   0.52999997  49.62999725
H     6.58999968  -0.75999999  48.46000290
