96

S    17.17000008   1.74000001  57.52999878
C    19.85000038   2.28999996  56.93999863
C    18.63999939   1.77999997  56.52999878
C    18.35000038   1.25000000  55.22999573
C    19.38999939   1.35000002  54.31999969
C    20.63999939   1.93000007  54.64000320
C    21.70999908   1.87000012  53.69999695
C    22.96999931   2.28999996  54.02999878
C    23.23999786   2.70000005  55.35999680
C    22.26000023   2.63999987  56.32999802
C    20.90999985   2.30999994  56.00000000
C    16.93000031   1.13000000  54.94999695
C    16.17000008   1.50000000  56.09000397
C    14.78999996   1.66999996  56.11000061
C    24.65999985   3.07000017  55.70999908
H    25.18567467   2.41645789  56.40616608
H    19.98999977   2.77999997  57.90000153
H    19.20999908   0.88000000  53.36000061
H    21.51000023   1.36000013  52.76000214
H    23.85000038   2.22000003  53.40000153
H    22.55000114   2.86000013  57.35000229
H    14.29999924   1.90999997  57.04999924
H    25.26000023   3.15000010  54.79999924
H    24.63999939   4.07000017  56.16000366
S    13.73000050   0.69000000  52.44999695
C    11.05999947   0.28000000  53.15000153
C    12.31999969   0.69999999  53.52000427
C    12.63000011   1.18000007  54.82999802
C    11.61000061   1.25999999  55.76000214
C    10.29999924   0.83999997  55.40999985
C     9.26000023   0.92000002  56.38000107
C     8.01000023   0.45000002  56.04999924
C     7.69000006   0.09000000  54.71000290
C     8.67000008   0.04000000  53.74000168
C     9.98999977   0.44000000  54.06999969
C    14.06999969   1.34000003  54.94999695
C    14.82999992   1.13999999  53.76999664
C    16.21000099   1.01999998  53.75000000
C     6.24000025  -0.22000000  54.43000031
H     5.86992979   0.31375554  53.55464172
H    10.93999958  -0.05000000  52.11999893
H    11.87000084   1.31999993  56.81000137
H     9.39000034   1.41000009  57.34000397
H     7.23999977   0.45000002  56.81000137
H     8.40999985  -0.14000000  52.70000076
H    16.84999847   0.93000001  52.87000275
H     5.58000040  -0.06000000  55.28999710
H     6.17999983  -1.28999996  54.19000244
S    18.15999985   2.82000017  51.45999908
C    20.88999939   2.99000001  50.86000061
C    19.62000084   2.63999987  50.45999908
C    19.36000061   2.00000000  49.20999908
C    20.43000031   1.89999998  48.33000183
C    21.75000000   2.27999997  48.66000366
C    22.88999939   1.93000007  47.88999939
C    24.15999985   2.25000000  48.31999969
C    24.40999985   2.79000020  49.59999847
C    23.31000137   3.14000010  50.35999680
C    21.97000122   2.87999988  49.94999695
C    17.93000031   1.82999992  48.96999741
C    17.17000008   2.26999998  50.08999634
C    15.78999996   2.38999987  50.11000061
C    25.79999924   3.12000012  50.11000061
H    26.21337891   2.58545852  50.96526718
H    21.09000015   3.42000008  51.83000183
H    20.20000076   1.28999996  47.45999908
H    22.82999992   1.35000002  46.97000122
H    25.00999832   1.85000002  47.77000046
H    23.39999962   3.55999994  51.35000229
H    15.39999962   2.70000005  51.07999802
H    26.47000122   2.94999981  49.26000214
H    25.72999954   4.17000008  50.40000153
S    14.72000027   0.83999997  46.65000153
C    12.02999973   1.00000000  47.19999695
C    13.30999947   1.28999996  47.62000275
C    13.60000038   1.87000012  48.88999939
C    12.51999950   2.16000009  49.71000290
C    11.21000099   1.87000012  49.27000046
C    10.17000008   1.85000002  50.24000168
C     8.89999962   1.44999993  49.88999939
C     8.57999992   0.97000003  48.59000397
C     9.57999992   0.81000000  47.65999603
C    10.88999939   1.25999999  48.01000214
C    15.05000019   1.87999988  49.02999878
C    15.80000019   1.33000004  47.97000122
C    17.19000053   1.38000000  47.88000107
C     7.22000027   0.41000003  48.22999954
H     6.79302311   1.07893085  47.48279190
H    11.90999985   0.43000001  46.27999878
H    12.57999992   2.36000013  50.77999878
H    10.26000023   2.11999989  51.29000092
H     8.07999992   1.58999991  50.59000015
H     9.44000053   0.38000000  46.68000031
H    17.72999954   1.08999991  46.97999954
H     6.60000038   0.34999999  49.13000107
H     7.26000023  -0.63000000  47.87000275
