96

S    17.05999947   2.57999992  57.41000366
C    19.76000023   2.34999990  56.76000214
C    18.45000076   2.05999994  56.44000244
C    18.04999924   1.56000006  55.15999603
C    19.01000023   1.31999993  54.18000031
C    20.36999893   1.58000004  54.47000122
C    21.31000137   1.52999997  53.40000153
C    22.59000015   1.98000002  53.63999939
C    22.96999931   2.40999985  54.93000031
C    22.09000015   2.44000006  55.98999786
C    20.73999786   2.02999997  55.79000092
C    16.61000061   1.67999995  54.95999908
C    15.93000031   2.10999990  56.11999893
C    14.55000019   2.24000001  56.10000229
C    24.37999916   2.92000008  55.17000198
H    24.86922455   2.40950489  55.99955368
H    20.10000038   2.82000017  57.68000031
H    18.77000046   0.99000001  53.16999817
H    20.93000031   1.23000002  52.43000031
H    23.26000023   1.93000007  52.78999710
H    22.40999985   2.79999995  56.97000122
H    13.94999981   2.30999994  57.01000214
H    24.93000031   2.93000007  54.22000122
H    24.37999916   3.97000027  55.47000122
S    13.43999958   0.93000001  52.57999802
C    10.80999947   0.64000005  53.40000153
C    12.07999992   1.07000005  53.70999908
C    12.38999939   1.75000000  54.93000031
C    11.43000031   1.77999997  55.93000031
C    10.11000061   1.34000003  55.65000153
C     9.00000000   1.41000009  56.52999878
C     7.73000002   0.97999996  56.23000336
C     7.42999983   0.45000002  54.94999695
C     8.45000076   0.44000000  54.02999878
C     9.77999973   0.83999997  54.34999847
C    13.81999969   2.00999999  54.93000031
C    14.55999947   1.58000004  53.80000305
C    15.92000008   1.29999995  53.80000305
C     6.02999973   0.14999999  54.45999908
H     5.68938255   0.83833116  53.68651199
H    10.57999992   0.32999998  52.37999725
H    11.77000046   1.97000003  56.95000076
H     9.18000031   1.69000006  57.56999969
H     6.83000040   1.10000002  56.84000015
H     8.10999966   0.24000001  53.02000046
H    16.36000061   0.73000002  53.00000000
H     5.44000053   0.16000001  55.38000107
H     6.05000019  -0.85000002  54.02999878
S    14.29999924  -1.18000007  49.89999771
C    11.61999893  -1.43000007  50.52000046
C    12.90999985  -1.81999993  50.79999924
C    13.22999954  -2.50000000  52.02000046
C    12.23000050  -2.99000001  52.84999847
C    10.88000107  -2.66000009  52.56000137
C     9.81000042  -3.22000003  53.30999756
C     8.48999977  -3.12999988  52.95000076
C     8.14999962  -2.36000013  51.79999924
C     9.19999981  -1.87000012  51.04999924
C    10.59000015  -1.92000008  51.37000275
C    14.65999985  -2.44000006  52.22999954
C    15.36000061  -1.75999999  51.20999908
C    16.70999908  -1.43999994  51.14999771
C     6.72999954  -2.13000011  51.35000229
H     6.30315971  -2.65643549  50.49631882
H    11.36999989  -0.86000001  49.62999725
H    12.41000080  -3.75000000  53.60000229
H    10.06000042  -3.93000007  54.09999847
H     7.67000008  -3.50000000  53.55999756
H     9.00000000  -1.31999993  50.13000107
H    17.04000092  -0.86000001  50.28999710
H     6.07999992  -2.01999998  52.22000122
H     6.76999998  -1.10000002  50.97000122
S    17.95999908  -3.08999991  54.55999756
C    20.65999985  -2.47000003  53.99000168
C    19.32999992  -2.40999985  53.66000366
C    18.89999962  -1.76999998  52.44999695
C    19.82999992  -1.18000007  51.60999680
C    21.19999886  -1.28000009  51.93999863
C    22.18000031  -0.79999995  51.03000259
C    23.52000046  -0.96000004  51.27999878
C    23.97999954  -1.53999996  52.50000000
C    23.05000114  -1.99000001  53.40999985
C    21.64999962  -1.86000001  53.18000031
C    17.46999931  -1.90999997  52.22999954
C    16.82999992  -2.59000015  53.29999924
C    15.46000004  -2.86999989  53.29999924
C    25.38999939  -1.99000001  52.78999710
H    25.91621208  -1.53489721  53.62909317
H    21.00000000  -3.07000017  54.82999802
H    19.57999992  -0.65999997  50.68000031
H    21.75000000  -0.48000002  50.08999634
H    24.21999931  -0.68000007  50.50000000
H    23.34000015  -2.56000018  54.29000092
H    14.98999977  -3.26999998  54.19000244
H    25.96999931  -1.87000012  51.86999893
H    25.31999969  -3.07000017  52.91999817
