96

S    17.53000069   1.80000007  57.39999771
C    20.19000053   1.92000008  56.59999847
C    18.90999985   1.51999998  56.31999969
C    18.52000046   1.04999995  55.01999664
C    19.52000046   0.86000001  54.08000183
C    20.86999893   1.16999996  54.38999939
C    21.94000053   1.07000005  53.44999695
C    23.25000000   1.39999998  53.69999695
C    23.52000046   2.13000011  54.88999939
C    22.53999901   2.27999997  55.83000183
C    21.24000168   1.72999990  55.65999985
C    17.07999992   1.13000000  54.86999893
C    16.39999962   1.38000000  56.09000397
C    15.01999950   1.33000004  56.20999908
C    24.89999962   2.69000006  55.20000076
H    25.31360054   2.20509005  56.08425140
H    20.39999962   2.47000003  57.51999664
H    19.40000153   0.28000000  53.18000031
H    21.73999977   0.79000002  52.42000198
H    24.10000038   1.08000004  53.11999893
H    22.72000122   2.84000015  56.75000000
H    14.55000019   1.48000002  57.18000031
H    25.50000000   2.59999990  54.29000092
H    24.79000092   3.76999998  55.35999680
S    13.83999920   0.50999999  52.48000336
C    11.10999966   0.54000002  53.13999939
C    12.41000080   0.81000000  53.48999786
C    12.84000015   1.08000004  54.82999802
C    11.80999947   1.16999996  55.75000000
C    10.44000053   1.04999995  55.41999817
C     9.34000015   1.19999993  56.31000137
C     8.01999950   1.07000005  55.93999863
C     7.68000031   0.59000003  54.65000153
C     8.69999981   0.51999998  53.72000122
C    10.06000042   0.79999995  54.05000305
C    14.27999973   1.18000007  55.04000092
C    14.93999958   0.96000004  53.80000305
C    16.32999992   0.88000000  53.72000122
C     6.32000017   0.11000000  54.20999908
H     5.83756065   0.73433381  53.45796204
H    10.88999939   0.14000000  52.15000153
H    12.01000023   1.28000009  56.81000137
H     9.42000008   1.52999997  57.34000397
H     7.23000002   1.03999996  56.68000031
H     8.63000011  -0.04000000  52.78999710
H    16.82999992   0.41000003  52.88000107
H     5.73000002   0.04000000  55.13000107
H     6.44999981  -0.93999994  53.92000198
S    18.01000023   2.39999986  51.51000214
C    20.69000053   2.33999991  50.90000153
C    19.42000008   1.94000006  50.52999878
C    19.11000061   1.49000001  49.20999908
C    20.20999908   1.34000003  48.37999725
C    21.54000092   1.70000005  48.69999695
C    22.65999985   1.58999991  47.83000183
C    23.92999840   2.02999997  48.13000107
C    24.06999969   2.63999987  49.40000153
C    23.08000183   2.70000005  50.35999680
C    21.78999901   2.22000003  50.01999664
C    17.65999985   1.50999999  49.02999878
C    16.95000076   2.03999996  50.13000107
C    15.57000065   2.13000011  50.21999741
C    25.45000076   3.12999988  49.77000427
H    25.84725380   2.45608807  50.52903748
H    20.88000107   3.08999991  51.66999817
H    20.00000000   0.92000002  47.39999771
H    22.27000046   1.28000009  46.86000061
H    24.70999908   1.75999999  47.42000198
H    23.29999924   3.00999999  51.38000107
H    14.96000099   2.30999994  51.10000229
H    26.04000092   3.19000006  48.85000229
H    25.32999992   4.15000010  50.14999771
S    14.55999947   0.73000002  46.59000015
C    11.82000065   0.73000002  47.15000153
C    13.10999966   0.99000001  47.56999969
C    13.45000076   1.61000001  48.81000137
C    12.39999962   1.87999988  49.66999817
C    11.06999969   1.52999997  49.31000137
C     9.98999977   1.82999992  50.19000244
C     8.69000053   1.57000005  49.85000229
C     8.34999943   0.88000000  48.64999771
C     9.39000034   0.52999997  47.81999969
C    10.75000000   0.88999999  48.06999969
C    14.86999989   1.79000008  49.06000137
C    15.57000065   1.24000001  47.95000076
C    16.95999908   1.19000006  47.85999680
C     6.97000027   0.35999998  48.31999969
H     6.47658443   0.91062343  47.51909256
H    11.69999981   0.25000000  46.18999863
H    12.53999901   2.38000011  50.63000107
H    10.21000004   2.19000006  51.18999863
H     7.88000011   1.74000001  50.56000137
H     9.19999981   0.01000000  46.88999939
H    17.48999977   0.79000002  47.00000000
H     6.44000006   0.34999999  49.27999878
H     6.98000002  -0.69999999  48.04999924
