96

S    17.84000015   1.99000001  57.76000214
C    20.55000114   1.98000002  57.04000092
C    19.26000023   1.62000000  56.76000214
C    18.86000061   1.11000001  55.47999954
C    19.78999901   0.97999996  54.47000122
C    21.14000130   1.29999995  54.78000259
C    22.11999893   1.21000004  53.75999832
C    23.43000031   1.59999990  53.95999908
C    23.84000015   2.05999994  55.22999573
C    22.90999985   2.19000006  56.24000168
C    21.55999947   1.77999997  56.06999969
C    17.42000008   1.02999997  55.31000137
C    16.73999977   1.56000006  56.43000031
C    15.34999943   1.59999990  56.49000168
C    25.23999977   2.61000013  55.44000244
H    25.78148460   1.88327098  56.04560852
H    20.76999855   2.63000011  57.88999939
H    19.52000046   0.81000000  53.43000031
H    21.87999916   0.79000002  52.78999710
H    24.07999992   1.66999996  53.09000015
H    23.22000122   2.44000006  57.25000000
H    14.77000046   1.97000003  57.32999802
H    25.73999786   2.75000000  54.47000122
H    25.20000076   3.60000014  55.91999817
S    14.21000004   0.06000000  52.97999954
C    11.50000000   0.14999999  53.57999802
C    12.77999973   0.50999999  53.93000031
C    13.15000057   1.00000000  55.22999573
C    12.10999966   1.14999998  56.12999725
C    10.76000023   0.97999996  55.77000046
C     9.70000076   1.21000004  56.70000076
C     8.40999985   0.93000001  56.33999634
C     8.14000034   0.24000001  55.13000107
C     9.09000015   0.11000000  54.13999939
C    10.43000031   0.45000002  54.47000122
C    14.59000015   1.08000004  55.44000244
C    15.26999950   0.51999998  54.33000183
C    16.65999985   0.45000002  54.29000092
C     6.69000053  -0.07000000  54.82999802
H     6.29938602   0.59049362  54.05587387
H    11.28000069  -0.41999999  52.69000244
H    12.36999989   1.28999996  57.18000031
H    10.07999992   1.63000000  57.63000107
H     7.59000015   1.13999999  57.02000046
H     8.90999985  -0.23000000  53.13000107
H    17.04000092   0.09000000  53.33000183
H     6.15000010   0.05000000  55.77999878
H     6.67000008  -1.13999999  54.59000015
S    18.27000046   2.19000006  51.81000137
C    20.92000008   2.56000018  50.97999954
C    19.65999985   2.05999994  50.72000122
C    19.27000046   1.58000004  49.43000031
C    20.23999977   1.53999996  48.43999863
C    21.57999992   1.94000006  48.68000031
C    22.69000053   1.72999990  47.81999969
C    23.95999908   2.16999984  48.11999893
C    24.26000214   2.82999992  49.34000015
C    23.22999954   2.92000008  50.25000000
C    21.90000153   2.48000002  49.97000122
C    17.84000015   1.34000003  49.29999924
C    17.18000031   1.64000010  50.52000046
C    15.78999996   1.58999991  50.58000183
C    25.63999939   3.33999991  49.68999863
H    26.21546364   2.72191048  50.37913513
H    21.11999893   2.96999979  51.97000122
H    20.00999832   0.93999994  47.56999969
H    22.56000137   1.19000006  46.88000107
H    24.79999924   1.92000008  47.48000336
H    23.46999931   3.37000012  51.20999908
H    15.29000092   1.94999993  51.46999741
H    26.15999985   3.47000003  48.74000168
H    25.45999908   4.30000019  50.18000031
S    14.67000008   1.01999998  46.77000046
C    11.94000053   0.86000001  47.49000168
C    13.26000023   1.08999991  47.83000183
C    13.60999966   1.50000000  49.15999985
C    12.61000061   1.82999992  50.06000137
C    11.26000023   1.52999997  49.77000427
C    10.22999954   1.62000000  50.75000000
C     8.90999985   1.43000007  50.41999817
C     8.52000046   0.96000004  49.13999939
C     9.55000019   0.75999999  48.23999786
C    10.93000031   0.99000001  48.47000122
C    15.03000069   1.34000003  49.43000031
C    15.70000076   1.05999994  48.22000122
C    17.07999992   0.90999997  48.20000076
C     7.07999992   0.55000001  48.90999603
H     6.66038942   1.10473919  48.07077408
H    11.63000011   0.64000005  46.46999741
H    12.86000061   2.21000004  51.04000092
H    10.50000000   2.00000000  51.73999786
H     8.26000023   1.59999990  51.26999664
H     9.30999947   0.38000000  47.25999832
H    17.61000061   0.43000001  47.38999939
H     6.50000000   0.63000000  49.84000397
H     7.11000013  -0.50999999  48.64999771
