96

S    17.59000015   2.39999986  57.25999832
C    20.29000092   2.39999986  56.81000137
C    19.05999947   2.01999998  56.33999634
C    18.70000076   1.51999998  55.04000092
C    19.76000023   1.51999998  54.15000153
C    21.09000015   1.72999990  54.58000183
C    22.18000031   1.39999998  53.72000122
C    23.46999931   1.71000004  54.09000015
C    23.72999954   2.31999993  55.34000015
C    22.69000053   2.68000007  56.17000198
C    21.35999870   2.24000001  55.90000153
C    17.26000023   1.43999994  54.82999802
C    16.52000046   1.81999993  55.97999954
C    15.13000011   1.87000012  56.02000427
C    25.10000038   2.86999989  55.65999985
H    25.58502579   2.44203663  56.53732300
H    20.43999863   2.86999989  57.77999878
H    19.62000084   1.05999994  53.18000031
H    21.98999786   0.96000004  52.75000000
H    24.25000000   1.38000000  53.40999985
H    22.85000038   3.33999991  57.02000046
H    14.60000038   2.37000012  56.81999969
H    25.76000023   2.59999990  54.81999969
H    24.93999863   3.95000005  55.77000046
S    14.06000042   0.22000000  52.56999969
C    11.32999992   0.19999999  53.30999756
C    12.64999962   0.44000000  53.61999893
C    13.00000000   1.04999995  54.86000061
C    12.02000046   1.28000009  55.80999756
C    10.65999985   0.99000001  55.54999924
C     9.70000076   1.03999996  56.59999847
C     8.38999939   0.75000000  56.31999969
C     8.02999973   0.32000002  55.00999832
C     8.93999958   0.16000001  54.00000000
C    10.29999924   0.48000002  54.25000000
C    14.40999985   1.39999998  54.91000366
C    15.13000011   0.93999994  53.77999878
C    16.52000046   0.90000004  53.77999878
C     6.54999971   0.06000000  54.82999802
H     6.20937443   0.48578137  53.88618469
H    11.05000019  -0.25999999  52.36000061
H    12.20999908   1.80999994  56.73999786
H    10.00000000   1.39999998  57.57999802
H     7.53999996   0.73000002  57.00000000
H     8.69999981  -0.34999999  53.06999969
H    17.14999962   0.52999997  52.97000122
H     6.09000015   0.54000002  55.70000076
H     6.34999990  -1.01999998  54.86000061
S    14.34000015  -1.64000010  49.81999969
C    11.76000023  -2.25999999  50.52999878
C    13.09999943  -2.54999995  50.68999863
C    13.55000019  -3.09999990  51.93000031
C    12.60000038  -3.50000000  52.87000275
C    11.21000099  -3.28000021  52.70999908
C    10.19999981  -3.73000002  53.60000229
C     8.85000038  -3.58000016  53.36000061
C     8.46000004  -2.86999989  52.18999863
C     9.39999962  -2.47000003  51.26999664
C    10.80000019  -2.63000011  51.50000000
C    14.96000099  -2.82999992  52.11999893
C    15.50000000  -1.97000003  51.12999725
C    16.80999947  -1.50999999  51.19999695
C     7.00000000  -2.64999986  51.88000107
H     6.62144756  -3.10712028  50.96575928
H    11.56999969  -1.65000010  49.65000153
H    12.93000031  -3.97000027  53.79000092
H    10.55999947  -4.38000011  54.38999939
H     8.06999969  -3.95000005  54.02000046
H     9.10000038  -2.01999998  50.33000183
H    17.20999908  -0.99000001  50.34000015
H     6.25999975  -2.91000009  52.63999939
H     6.93000031  -1.58000004  51.63000107
S    18.23999977  -3.02999997  54.59999847
C    20.89999962  -2.43000007  53.92000198
C    19.55999947  -2.32999992  53.64999771
C    19.06999969  -1.79000008  52.42000198
C    19.96999931  -1.29999995  51.49000168
C    21.35999870  -1.28999996  51.76000214
C    22.30999947  -0.75999999  50.84000015
C    23.64999962  -0.78000003  51.18000031
C    24.15999985  -1.51999998  52.27000427
C    23.22000122  -2.04999995  53.13000107
C    21.81999969  -1.85000002  53.00000000
C    17.63000107  -1.93000007  52.25000000
C    17.05999947  -2.68000007  53.31999969
C    15.76000023  -3.16000009  53.22000122
C    25.65000153  -1.63000000  52.52999878
H    25.95544815  -1.40979350  53.55289078
H    21.28999901  -3.05000019  54.72000122
H    19.64999962  -0.88000000  50.54000092
H    22.06000137  -0.34000003  49.86999893
H    24.23000145  -0.27000001  50.41999817
H    23.59999847  -2.53999996  54.02000046
H    15.26999950  -3.72000003  54.01000214
H    26.09000015  -0.79999995  51.97000122
H    26.14999962  -2.53999996  52.16999817
