96

S    17.35999870   2.23000002  57.65999603
C    20.07999802   2.48000002  56.79999924
C    18.77000046   2.10999990  56.58000183
C    18.44000053   1.58000004  55.28999710
C    19.40999985   1.42000008  54.31999969
C    20.72999954   1.87000012  54.55999756
C    21.73999977   1.77999997  53.54999924
C    23.02000046   2.22000003  53.80000305
C    23.36000061   2.77999997  55.06000137
C    22.39000130   2.99000001  56.02000427
C    21.07000160   2.52999997  55.79000092
C    17.00000000   1.43000007  55.13000107
C    16.29999924   1.77999997  56.31000137
C    14.91000080   1.82999992  56.31999969
C    24.77999878   3.12999988  55.43000031
H    25.29049301   2.42807150  56.08938980
H    20.38000107   2.77999997  57.80000305
H    19.11999893   0.85000002  53.43999863
H    21.42000008   1.49000001  52.55000305
H    23.78999901   1.94000006  53.09000015
H    22.52000046   3.48000002  56.97999954
H    14.27999973   2.07999992  57.16999817
H    25.34000015   3.09999990  54.48999786
H    24.71999931   4.13000011  55.86999893
S    13.81999969   0.75000000  52.63000107
C    11.14999962   0.38000000  53.40999985
C    12.42000008   0.79999995  53.73000336
C    12.79999924   1.15999997  55.06000137
C    11.79999924   1.38000000  55.97999954
C    10.43000031   1.24000001  55.63999939
C     9.35000038   1.50000000  56.52999878
C     8.02999973   1.24000001  56.23000336
C     7.77999973   0.52999997  55.01999664
C     8.78999996   0.25999999  54.12000275
C    10.14999962   0.56000000  54.40000153
C    14.22999954   1.38999999  55.17000198
C    14.93000031   1.13999999  53.95999908
C    16.31999969   1.14999998  53.94000244
C     6.38000011   0.07000000  54.68000031
H     5.88121223   0.64004362  53.89618683
H    10.95999908   0.14000000  52.36999893
H    12.15999985   1.62000000  56.97999954
H     9.63000011   1.85000002  57.50999832
H     7.27999973   1.51999998  56.95999908
H     8.63000011  -0.32999998  53.22000122
H    16.82999992   0.78000003  53.06000137
H     5.77000046   0.01000000  55.59000015
H     6.48000002  -1.00000000  54.48999786
S    17.97000122   3.05999994  51.44000244
C    20.63999939   3.03999996  50.70999908
C    19.34999847   2.70000005  50.38999939
C    19.00000000   2.20000005  49.09999847
C    20.00000000   2.13000011  48.13999939
C    21.35000038   2.44000006  48.44999695
C    22.40999985   2.16000009  47.54000092
C    23.75000000   2.25999999  47.85999680
C    24.00000000   3.00999999  49.03999710
C    23.02000046   3.38000011  49.93000031
C    21.68000031   2.94999981  49.75000000
C    17.57999992   1.90999997  49.05000305
C    16.90000153   2.44000006  50.17000198
C    15.52999973   2.66000009  50.30000305
C    25.42000008   3.40000010  49.38999939
H    25.76886940   2.69514275  50.14469528
H    20.82999992   3.56999993  51.63999939
H    19.82999992   1.59999990  47.21000290
H    22.21999931   1.66999996  46.59000015
H    24.48999786   1.98000002  47.11999893
H    23.31999969   3.88999987  50.84000015
H    15.01999950   3.03999996  51.18000031
H    26.12999916   3.33999991  48.54999924
H    25.38999939   4.42000008  49.79000092
S    14.32999992   1.38999999  46.70999908
C    11.57999992   1.58999991  47.37999725
C    12.90999985   1.72000003  47.70999908
C    13.31999969   2.21000004  49.00000000
C    12.32999992   2.34999990  49.94999695
C    10.97000027   2.06999993  49.68000031
C     9.92000008   2.09999990  50.65000153
C     8.60999966   1.81999993  50.34000015
C     8.18000031   1.52999997  49.02000046
C     9.19999981   1.36999989  48.11000061
C    10.54999924   1.75999999  48.34000015
C    14.75999928   2.26999998  49.19000244
C    15.42000008   1.71000004  48.06999969
C    16.77999878   1.43999994  47.98999786
C     6.78999996   0.97000003  48.82999802
H     6.34924984   1.36098814  47.91295624
H    11.36999989   1.25999999  46.37000275
H    12.64000034   2.52999997  50.97999954
H    10.24000072   2.20000005  51.68000031
H     7.95000029   1.62000000  51.18000031
H     8.88000011   0.82999998  47.22999954
H    17.22999954   1.22000003  47.02000046
H     6.19999981   1.28000009  49.69999695
H     6.96000004  -0.11000000  48.72000122
