96

S    17.67000008   1.88999999  57.56000137
C    20.32999992   2.02999997  56.72999954
C    19.04000092   1.62000000  56.45999908
C    18.67000008   1.08999991  55.18000031
C    19.62000084   0.96000004  54.19000244
C    20.95999908   1.28999996  54.47999954
C    22.01000023   1.00999999  53.55999756
C    23.31000137   1.36000013  53.82999802
C    23.68999863   2.04999995  55.00999832
C    22.69000053   2.28999996  55.91999817
C    21.34000015   1.87000012  55.73999786
C    17.21999931   1.00000000  55.10000229
C    16.54000092   1.50000000  56.24000168
C    15.14999962   1.52999997  56.32999802
C    25.07999802   2.47000003  55.43000031
H    25.39355087   1.81439316  56.24238205
H    20.62000084   2.52999997  57.64999771
H    19.36000061   0.50999999  53.22999954
H    21.78999901   0.68000007  52.54000092
H    24.07999992   1.19999993  53.09000015
H    22.90999985   2.79999995  56.84999847
H    14.65000057   1.93000007  57.19999695
H    25.76999855   2.42000008  54.58000183
H    24.93999863   3.51000023  55.76000214
S    13.94000053   0.56000000  52.70000076
C    11.19999981   0.61000001  53.37999725
C    12.51999950   0.75000000  53.75000000
C    12.89000034   1.25999999  55.04000092
C    11.89000034   1.47000003  55.97000122
C    10.52999973   1.24000001  55.65999985
C     9.50000000   1.31999993  56.65000153
C     8.22000027   0.90999997  56.37000275
C     7.86999989   0.63000000  55.01999664
C     8.80999947   0.56000000  54.02000046
C    10.18000031   0.79000002  54.34000015
C    14.32999992   1.22000003  55.24000168
C    15.03000069   0.85000002  54.06999969
C    16.40999985   0.69000000  54.00000000
C     6.40999985   0.39000002  54.71000290
H     6.06914425   0.84447426  53.77975082
H    10.95999908   0.01000000  52.50000000
H    12.05999947   1.75000000  57.01000214
H     9.85999966   1.63000000  57.63000107
H     7.42999983   0.93999994  57.11999893
H     8.43000031   0.39999998  53.02000046
H    16.88999939   0.31000000  53.09999847
H     5.82999992   0.75999999  55.56000137
H     6.28999996  -0.69999999  54.66999817
S    14.47999954  -1.50000000  49.86999893
C    11.85999966  -2.15000010  50.61999893
C    13.22000027  -2.25000000  50.86000061
C    13.73999977  -2.75000000  52.09000015
C    12.81999969  -3.30000019  52.95999908
C    11.42000008  -3.21000004  52.74000168
C    10.44000053  -3.79999995  53.59000397
C     9.07999992  -3.73000002  53.37999725
C     8.57999992  -2.98000002  52.29000092
C     9.48999977  -2.40999985  51.40999603
C    10.88999939  -2.59000015  51.56000137
C    15.18000031  -2.51999998  52.18999863
C    15.72999954  -1.82999992  51.09000397
C    17.09000015  -1.53999996  51.05999756
C     7.14999962  -2.54999995  52.08000183
H     6.60261774  -3.01918483  51.26248169
H    11.56999969  -1.70000005  49.68000031
H    13.21000004  -3.77999997  53.85000229
H    10.75000000  -4.28999996  54.51000214
H     8.43999958  -4.13999987  54.15000153
H     9.04999924  -1.87999988  50.56999969
H    17.53999901  -1.05999994  50.20000076
H     6.52999973  -2.56999993  52.98999786
H     7.25000000  -1.48000002  51.86999893
S    18.53000069  -3.08999991  54.47999954
C    21.15999985  -2.59000015  53.74000168
C    19.81999969  -2.36000013  53.50999832
C    19.30999947  -1.81999993  52.29000092
C    20.23999977  -1.39999998  51.35000229
C    21.63000107  -1.57000005  51.56999969
C    22.63999939  -1.24000001  50.63000107
C    23.97999954  -1.18000007  50.94999695
C    24.43000031  -1.75000000  52.16999817
C    23.51000023  -2.32999992  53.00000000
C    22.11000061  -2.23000002  52.75000000
C    17.86999893  -2.00999999  52.12999725
C    17.31999969  -2.71000004  53.22999954
C    15.95000076  -2.89000010  53.29999924
C    25.90999985  -1.94000006  52.44999695
H    26.30273628  -1.44015312  53.33544159
H    21.38000107  -3.21000004  54.61000061
H    19.84000015  -1.12000000  50.38000107
H    22.36000061  -0.79000002  49.68000031
H    24.64999962  -0.57999998  50.34000015
H    23.87000084  -2.87999988  53.87000275
H    15.44999981  -3.35000014  54.15000153
H    26.40999985  -1.62000000  51.52999878
H    26.15999985  -3.00000000  52.56999969
