96

S    17.54999924   1.63000000  57.81000137
C    20.22000122   1.89999998  57.09999847
C    18.95000076   1.49000001  56.73999786
C    18.60999870   1.15999997  55.38999939
C    19.60000038   1.04999995  54.43000031
C    20.90999985   1.43000007  54.79000092
C    21.91999817   1.43000007  53.79000092
C    23.21000099   1.82999992  54.08000183
C    23.54999924   2.20000005  55.40000153
C    22.57999802   2.24000001  56.38000107
C    21.25000000   1.80000007  56.13999939
C    17.17000008   1.07000005  55.20999908
C    16.48999977   1.36000013  56.42000198
C    15.11000061   1.56000006  56.38999939
C    25.00000000   2.46000004  55.73999786
H    25.38598442   1.83813405  56.54771042
H    20.52999878   2.39999986  58.01000214
H    19.19000053   0.68000007  53.48999786
H    21.53000069   1.16999996  52.81000137
H    23.90999985   1.65000010  53.27000046
H    22.84000015   2.53999996  57.38999939
H    14.57999992   1.76999998  57.30999756
H    25.65000153   2.25000000  54.87999725
H    25.15999985   3.51000023  56.04000092
S    13.94000053   0.23000000  52.84000015
C    11.21000099   0.32000002  53.56999969
C    12.53000069   0.56999999  53.86000061
C    12.90999985   1.04999995  55.15999603
C    11.94000053   1.12000000  56.13999939
C    10.59000015   0.81000000  55.84999847
C     9.48000050   1.15999997  56.66999817
C     8.14000034   1.01999998  56.40999603
C     7.82999992   0.50999999  55.12000275
C     8.80999947   0.06000000  54.27000046
C    10.18000031   0.34999999  54.54999924
C    14.34999943   1.23000002  55.26000214
C    15.03999901   0.87000000  54.08000183
C    16.43000031   0.87000000  54.02999878
C     6.35999966   0.32000002  54.81999969
H     5.96923542   0.91680300  53.99584579
H    11.02000046  -0.14999999  52.61000061
H    12.18999958   1.54999995  57.09999847
H     9.73999977   1.52999997  57.65999603
H     7.36000013   1.25000000  57.11999893
H     8.64000034  -0.41999999  53.30999756
H    17.00000000   0.64000005  53.13999939
H     5.69999981   0.31000000  55.68999863
H     6.34000015  -0.75000000  54.59000015
S    17.88999939   2.50000000  51.59999847
C    20.58000183   2.57999992  50.86000061
C    19.29999924   2.16999984  50.56000137
C    18.95000076   1.67999995  49.26000214
C    19.95000076   1.58000004  48.30999756
C    21.30000114   1.94000006  48.57999802
C    22.43000031   1.80999994  47.71999741
C    23.71000099   2.09000015  48.15999985
C    23.95000076   2.75000000  49.38000107
C    22.88000107   3.00999999  50.20999908
C    21.60000038   2.47000003  49.87999725
C    17.51000023   1.53999996  49.13000107
C    16.82999992   1.86000001  50.33000183
C    15.44000053   1.82999992  50.40000153
C    25.31999969   3.22000003  49.80999756
H    25.80185699   2.55390310  50.52569962
H    20.76000023   3.16000009  51.75000000
H    19.64999962   1.30999994  47.29999924
H    22.11000061   1.57000005  46.70999908
H    24.51999855   2.03999996  47.43999863
H    23.09999847   3.38999987  51.20999908
H    14.94999981   2.17999983  51.30000305
H    25.94000053   3.48000002  48.94000244
H    25.19000053   4.15999985  50.35999680
S    14.25000000   0.79999995  46.76000214
C    11.57999992   0.50000000  47.50999832
C    12.86999893   0.82999998  47.87000275
C    13.19000053   1.29999995  49.18000031
C    12.20000076   1.49000001  50.13000107
C    10.86999989   1.23000002  49.73999786
C     9.78999996   1.41000009  50.65999985
C     8.48999977   1.24000001  50.26000214
C     8.15999985   0.65999997  49.01000214
C     9.17000008   0.48000002  48.09000015
C    10.52000046   0.76999998  48.41999817
C    14.63000107   1.42000008  49.33000183
C    15.31000042   1.25999999  48.09999847
C    16.69999886   1.25999999  48.02000046
C     6.77999973   0.12000000  48.72000122
H     6.15810013   0.72776568  48.06276321
H    11.31999969   0.11000000  46.52999878
H    12.36999989   1.77999997  51.17000198
H     9.94999981   1.88999999  51.62000275
H     7.71000004   1.46000004  50.98999786
H     8.92000008   0.02000000  47.14000320
H    17.19000053   0.85000002  47.14000320
H     6.32000017   0.06000000  49.71000290
H     6.85999966  -0.93000001  48.40999985
