96

S    17.71999931   2.03999996  57.81000137
C    20.45000076   2.32999992  57.12999725
C    19.15999985   2.00999999  56.77999878
C    18.81000137   1.48000002  55.50000000
C    19.75000000   1.33000004  54.50000000
C    21.09000015   1.66999996  54.80999756
C    22.15999985   1.65000010  53.87000275
C    23.46999931   1.89999998  54.20999908
C    23.81999969   2.38000011  55.50000000
C    22.75000000   2.69000006  56.31000137
C    21.42000008   2.21000004  56.10000229
C    17.36999893   1.38999999  55.27999878
C    16.62999916   1.65999997  56.45999908
C    15.25000000   1.76999998  56.51000214
C    25.25000000   2.70000005  55.84000015
H    25.55660248   2.24366212  56.78119659
H    20.73999786   2.75999999  58.09000015
H    19.63000107   0.93000001  53.50000000
H    22.00000000   1.31999993  52.84000015
H    24.18000031   1.80999994  53.40000153
H    22.86999893   3.07999992  57.30999756
H    14.70000076   2.07999992  57.39999771
H    25.95000076   2.57999992  54.99000168
H    25.30999947   3.77999997  56.04000092
S    14.14000034   0.39000002  53.00000000
C    11.46000004   0.37000000  53.59000397
C    12.69999981   0.81000000  53.95999908
C    13.03999996   1.48000002  55.18000031
C    12.05000019   1.61000001  56.12999725
C    10.72000027   1.22000003  55.83000183
C     9.63999939   1.46000004  56.72999954
C     8.34999943   1.13000000  56.38000107
C     8.09000015   0.52999997  55.12000275
C     9.11000061   0.28000000  54.23999786
C    10.44999981   0.64000005  54.54000092
C    14.48999977   1.54999995  55.35999680
C    15.21000004   1.03999996  54.25000000
C    16.60000038   1.02999997  54.16999817
C     6.72999954  -0.02000000  54.73999786
H     6.14430094   0.62284064  54.08287430
H    11.26000023  -0.20999999  52.69000244
H    12.20999908   1.94000006  57.15999985
H     9.85999966   1.88999999  57.70000076
H     7.51999950   1.35000002  57.04999924
H     8.89999962  -0.32999998  53.36000061
H    16.97999954   0.64000005  53.22999954
H     6.25000000  -0.11000000  55.72999954
H     6.76999998  -1.00000000  54.25000000
S    14.17000008  -1.75000000  50.04000092
C    11.52999973  -2.22000003  50.61000061
C    12.84000015  -2.44000006  50.97999954
C    13.27999973  -3.00999999  52.22000122
C    12.28999996  -3.49000001  53.04999924
C    10.93000031  -3.38000011  52.65999603
C     9.92999935  -3.79999995  53.56999969
C     8.60999966  -3.47000003  53.39000320
C     8.21000004  -2.77999997  52.21000290
C     9.13000011  -2.40999985  51.25999832
C    10.51000023  -2.70000005  51.46999741
C    14.73000050  -2.89999986  52.35000229
C    15.34000015  -2.19000006  51.29000092
C    16.62999916  -1.66999996  51.31000137
C     6.77999973  -2.59999990  51.73999786
H     6.56002235  -3.41604638  51.05168152
H    11.30000019  -1.63000000  49.72000122
H    12.56000042  -3.81999993  54.05000305
H    10.19999981  -4.23999977  54.52999878
H     7.88999987  -3.84999990  54.09999847
H     8.80999947  -1.87999988  50.35999680
H    16.95000076  -0.97000003  50.54999924
H     6.09000015  -2.63999987  52.58999634
H     6.67000008  -1.58999991  51.31999969
S    18.12999916  -3.19999981  54.66999817
C    20.72999954  -2.38000011  54.06999969
C    19.37999916  -2.28999996  53.80000305
C    18.86999893  -1.80999994  52.55000305
C    19.76000023  -1.23000002  51.66999817
C    21.14000130  -1.21000004  51.97999954
C    22.09000015  -0.69000000  51.05999756
C    23.43000031  -0.85000002  51.35000229
C    23.97000122  -1.48000002  52.50000000
C    23.06999969  -1.94999993  53.43000031
C    21.67000008  -1.80000007  53.18000031
C    17.45000076  -2.07999992  52.37999725
C    16.88999939  -2.79999995  53.46000290
C    15.57000065  -3.23000002  53.41999817
C    25.46999931  -1.67999995  52.61000061
H    25.90681076  -1.35776258  53.55522919
H    21.07999992  -2.93000007  54.93000031
H    19.38999939  -0.97000003  50.68000031
H    21.75000000  -0.14999999  50.18000031
H    24.17000008  -0.41000003  50.68999863
H    23.31999969  -2.32999992  54.41999817
H    15.19000053  -3.65999985  54.34999847
H    25.79999924  -1.19000006  51.69000244
H    25.61000061  -2.76999998  52.55000305
