96

S    17.64999962   2.13000011  57.56000137
C    20.29000092   2.48000002  56.69000244
C    19.05999947   1.87999988  56.51000214
C    18.86000061   1.34000003  55.20000076
C    19.88000107   1.13999999  54.29000092
C    21.19999886   1.38999999  54.72999954
C    22.30999947   1.00999999  53.92000198
C    23.57999992   1.35000002  54.31000137
C    23.82999802   2.05999994  55.51000214
C    22.76000023   2.61000013  56.18999863
C    21.42999840   2.16999984  55.90999985
C    17.40999985   1.26999998  55.01999664
C    16.68000031   1.77999997  56.11999893
C    15.29000092   1.87000012  56.14999771
C    25.20999908   2.56000018  55.86000061
H    25.73638153   1.94826031  56.59266663
H    20.29999924   3.23000002  57.47000122
H    19.67000008   0.52999997  53.41999817
H    22.19000053   0.51999998  52.95999908
H    24.50000000   1.04999995  53.80000305
H    22.79000092   3.25000000  57.06999969
H    14.82999992   2.16999984  57.09000015
H    25.85000038   2.61999989  54.97000122
H    25.15000153   3.54999995  56.31999969
S    14.22000027   0.61000001  52.61000061
C    11.46999931   0.51999998  53.23999786
C    12.76000023   0.86000001  53.57999802
C    13.07000065   1.44999993  54.85000229
C    12.05000019   1.69000006  55.76000214
C    10.71000004   1.35000002  55.47000122
C     9.65999985   1.43000007  56.43000031
C     8.39999962   0.99000001  56.11999893
C     8.15999985   0.37000000  54.86000061
C     9.13999939   0.22000000  53.90999603
C    10.44999981   0.69000000  54.20999908
C    14.51000023   1.46000004  55.06999969
C    15.27999973   1.03999996  53.95999908
C    16.64999962   0.79999995  53.94000244
C     6.75000000  -0.12000000  54.58000183
H     6.37093401   0.42356592  53.71458435
H    11.28000069  -0.02000000  52.31999969
H    12.30999947   2.04999995  56.75000000
H     9.94000053   1.70000005  57.43999863
H     7.59999990   0.90000004  56.84999847
H     9.00000000  -0.32000002  52.97999954
H    17.15999985   0.38000000  53.08000183
H     6.28000021   0.14000000  55.54000092
H     6.78999996  -1.21000004  54.47000122
S    17.97999954   2.89999986  51.55000305
C    20.72999954   2.63999987  51.10000229
C    19.45000076   2.33999991  50.72000122
C    19.03000069   1.69000006  49.52000046
C    20.03000069   1.46000004  48.59000397
C    21.37000084   1.80999994  48.88999939
C    22.36999893   1.71000004  47.88000107
C    23.68999863   2.01999998  48.15000153
C    24.06999969   2.54999995  49.40999985
C    23.12000084   2.68000007  50.40000153
C    21.76000214   2.31999993  50.18000031
C    17.60000038   1.70000005  49.25000000
C    16.87000084   2.31999993  50.30000305
C    15.47999954   2.31999993  50.34000015
C    25.53999901   2.80999994  49.65000153
H    25.93176270   2.19742489  50.46202087
H    21.04999924   2.96000004  52.09000015
H    19.77000046   1.19999993  47.56999969
H    22.15999985   1.36999989  46.86999893
H    24.51000023   1.79000008  47.48000336
H    23.29999924   3.07999992  51.39999771
H    15.06999969   2.75000000  51.25999832
H    26.22999954   2.71000004  48.80000305
H    25.65999985   3.88000011  49.79999924
S    14.42999935   0.59000003  46.90999985
C    11.75000000   0.65999997  47.63999939
C    13.02999973   1.08999991  47.88000107
C    13.35999966   1.84000003  49.05000305
C    12.38000011   2.09000015  49.99000168
C    11.03000069   1.76999998  49.72999954
C     9.98000050   1.87999988  50.68000031
C     8.73999977   1.33000004  50.41999817
C     8.42000008   0.78000003  49.15000153
C     9.35999966   0.79999995  48.15000153
C    10.71000004   1.05999994  48.52000427
C    14.80999947   1.85000002  49.20999908
C    15.52000046   1.24000001  48.13999939
C    16.90000153   1.08999991  48.20000076
C     6.98999977   0.34000003  48.90999603
H     6.50801897   1.01335549  48.20120239
H    11.40999985   0.03000000  46.81999969
H    12.57999992   2.38000011  51.02000427
H    10.14999962   2.33999991  51.65000153
H     7.95000029   1.38000000  51.16000366
H     9.22999954   0.59999996  47.09000015
H    17.45000076   0.62000000  47.37999725
H     6.51000023   0.37000000  49.89999771
H     7.04999971  -0.69999999  48.57999802
