96

S    17.45000076   1.92000008  57.49000168
C    20.13999939   1.75000000  56.91999817
C    18.85000038   1.48000002  56.50000000
C    18.44000053   0.99000001  55.21999741
C    19.45000076   0.83999997  54.29000092
C    20.79000092   1.14999998  54.62999725
C    21.84000015   1.13999999  53.67000198
C    23.09000015   1.63000000  53.95000076
C    23.38000107   2.09999990  55.25000000
C    22.42000198   2.14000010  56.24000168
C    21.15999985   1.52999997  55.97000122
C    17.00000000   0.97999996  55.02999878
C    16.32999992   1.38000000  56.22000122
C    14.93999958   1.47000003  56.31000137
C    24.80999947   2.47000003  55.56999969
H    25.29970932   1.76737261  56.24423981
H    20.38000107   2.26999998  57.84999847
H    19.18000031   0.54000002  53.27999878
H    21.52000046   0.75999999  52.70000076
H    23.88000107   1.53999996  53.20000076
H    22.63999939   2.38999987  57.27000427
H    14.47000027   1.56000006  57.29000092
H    25.45000076   2.39999986  54.68000031
H    24.79999924   3.45000005  56.05999756
S    13.76000023   0.23000000  52.69000244
C    11.06999969   0.11000000  53.52000427
C    12.38000011   0.41999999  53.80000305
C    12.76000023   0.87000000  55.11000061
C    11.78999996   1.04999995  56.07999802
C    10.44000053   0.76999998  55.77000046
C     9.35000038   1.00000000  56.65999985
C     8.03999996   0.83999997  56.30000305
C     7.64999962   0.41999999  55.00000000
C     8.67000008   0.14999999  54.10999680
C    10.03999901   0.29999998  54.47000122
C    14.19000053   1.12000000  55.18000031
C    14.84000015   0.85000002  53.95000076
C    16.22999954   0.74000001  53.88999939
C     6.25000000   0.04000000  54.59999847
H     5.85934448   0.53719765  53.71214676
H    10.85999966  -0.41999999  52.58999634
H    12.01000023   1.58000004  57.00000000
H     9.53999996   1.29999995  57.69000244
H     7.34000015   1.00999999  57.11000061
H     8.43999958  -0.16000001  53.09000015
H    16.77000046   0.46000001  52.98999786
H     5.56999969   0.19000000  55.44000244
H     6.21999979  -1.05999994  54.48999786
S    14.57999992  -1.56000006  49.80999756
C    11.92999935  -2.22000003  50.35999680
C    13.26000023  -2.33999991  50.70999908
C    13.68999958  -3.02999997  51.88999939
C    12.71000004  -3.51000023  52.72999573
C    11.32999992  -3.35999990  52.44999695
C    10.34000015  -3.68999982  53.40999985
C     9.02000046  -3.31999993  53.27000046
C     8.64999962  -2.73000002  52.02999878
C     9.52999973  -2.57999992  50.97999954
C    10.93000031  -2.73999977  51.20999908
C    15.11000061  -2.79999995  52.11999893
C    15.69000053  -1.95999992  51.12999725
C    17.01000023  -1.51999998  51.11999893
C     7.20000029  -2.39999986  51.76000214
H     6.76025057  -2.95323300  50.93014908
H    11.56000042  -1.65000010  49.52000046
H    12.98999977  -3.81000018  53.74000168
H    10.76000023  -4.18000031  54.29000092
H     8.36999989  -3.38000011  54.13000107
H     9.28999996  -2.09999990  50.04000092
H    17.27000046  -0.94999999  50.22999573
H     6.65000010  -2.53999996  52.70000076
H     7.27999973  -1.33000004  51.53999710
S    18.51000023  -3.19999981  54.38999939
C    21.19999886  -2.70000005  53.68000031
C    19.85999870  -2.64999986  53.37999725
C    19.34000015  -2.00000000  52.21000290
C    20.27000046  -1.39999998  51.37000275
C    21.65999985  -1.58999991  51.56000137
C    22.56000137  -0.85000002  50.73999786
C    23.88999939  -0.83999997  51.07999802
C    24.37000084  -1.42000008  52.28000259
C    23.54000092  -2.15000010  53.09000015
C    22.15999985  -2.21000004  52.76000214
C    17.89999962  -2.07999992  52.04000092
C    17.34000015  -2.80999994  53.11999893
C    15.98999977  -3.14000010  53.15999985
C    25.79999924  -1.11000001  52.69000244
H    26.11356544  -1.63023281  53.59506226
H    21.59000015  -3.17999983  54.56999969
H    19.95000076  -0.92000002  50.45999908
H    22.15999985  -0.27000001  49.91000366
H    24.60000038  -0.23000000  50.52000046
H    23.90000153  -2.59000015  54.02000046
H    15.65999985  -3.77999997  53.96999741
H    26.09999847  -0.05000000  52.77000046
H    26.51000023  -1.39999998  51.90999985
