96

S    17.36999893   1.77999997  57.64999771
C    20.00999832   2.07999992  56.97999954
C    18.78999901   1.53999996  56.63000107
C    18.46999931   1.23000002  55.27000046
C    19.55000114   1.21000004  54.38999939
C    20.85000038   1.62000000  54.75000000
C    21.93000031   1.56000006  53.81999969
C    23.18000031   1.97000003  54.23999786
C    23.45000076   2.29999995  55.59000015
C    22.43999863   2.33999991  56.52000046
C    21.11999893   1.98000002  56.11000061
C    17.04000092   1.14999998  55.04000092
C    16.35000038   1.58999991  56.20999908
C    14.96999931   1.71000004  56.25999832
C    24.89000130   2.48000002  56.03000259
H    25.11746407   1.96109736  56.96118546
H    20.06999969   2.75000000  57.83000183
H    19.38999939   0.88999999  53.36999893
H    21.84999847   1.13000000  52.81999969
H    24.04000092   1.82999992  53.57999802
H    22.65999985   2.61999989  57.54000092
H    14.42000008   2.07999992  57.11999893
H    25.55999947   2.13000011  55.22999573
H    25.15000153   3.52999973  56.17000198
S    13.78999901   0.90999997  52.54000092
C    11.16000080   0.59999996  53.29999924
C    12.38999939   1.11000001  53.61999893
C    12.79999924   1.49000001  54.93999863
C    11.79999924   1.52999997  55.90000153
C    10.47000027   1.22000003  55.54000092
C     9.35000038   1.44999993  56.38999939
C     8.05000019   1.35000002  55.93999863
C     7.71000004   0.81000000  54.66999817
C     8.76000023   0.56000000  53.81000137
C    10.10000038   0.74000001  54.23999786
C    14.23999977   1.43999994  55.08999634
C    14.92000008   1.12000000  53.88999939
C    16.29999924   0.94999999  53.87000275
C     6.30999994   0.34000003  54.38999939
H     5.99776697   0.78706098  53.44620514
H    10.97000027   0.32999998  52.27000427
H    12.00000000   1.79000008  56.93999863
H     9.55000019   1.67999995  57.43999863
H     7.23000002   1.64000010  56.58000183
H     8.57999992   0.31000000  52.77000046
H    16.80999947   0.82999998  52.91999817
H     5.68000031   0.56000000  55.26000214
H     6.32999992  -0.75000000  54.34000015
S    14.59000015  -1.05999994  49.98000336
C    11.87999916  -1.58000004  50.50000000
C    13.20000076  -1.79000008  50.79999924
C    13.60000038  -2.50000000  51.97999954
C    12.61999989  -3.03999996  52.80000305
C    11.26000023  -2.86000013  52.48000336
C    10.24000072  -3.42999983  53.29999924
C     8.90999985  -3.30999994  52.98999786
C     8.52999973  -2.56000018  51.84999847
C     9.47000027  -2.07999992  50.97000122
C    10.85999966  -2.16999984  51.27999878
C    15.03999901  -2.48000002  52.21000290
C    15.69000053  -1.74000001  51.18999863
C    17.04000092  -1.41000009  51.22000122
C     7.07000017  -2.39999986  51.46999741
H     6.70670557  -3.24056435  50.87875366
H    11.61000061  -0.93999994  49.65999985
H    12.97000027  -3.61000013  53.66000366
H    10.69000053  -3.94000006  54.15000153
H     8.09000015  -3.63999987  53.62999725
H     9.15000057  -1.51999998  50.08999634
H    17.53999901  -0.88000000  50.40999985
H     6.44999981  -2.28999996  52.36999893
H     6.85999966  -1.48000002  50.90999985
S    18.25000000  -3.09999990  54.62999725
C    20.96999931  -2.52999997  54.06000137
C    19.63000107  -2.34999990  53.80000305
C    19.26000023  -1.80000007  52.52999878
C    20.15999985  -1.30999994  51.60999680
C    21.54000092  -1.48000002  51.88999939
C    22.49000168  -0.85000002  51.04000092
C    23.81999969  -1.04999995  51.31999969
C    24.27000046  -1.94000006  52.32999802
C    23.32999992  -2.39999986  53.22000122
C    21.93000031  -2.16000009  53.09999847
C    17.81999969  -1.87999988  52.28000259
C    17.18000031  -2.64999986  53.27999878
C    15.85000038  -3.02999997  53.20999908
C    25.72000122  -2.09000015  52.71999741
H    26.02534294  -1.57162666  53.62892914
H    21.35000038  -2.94000006  54.99000168
H    19.78000069  -0.79000002  50.72999954
H    22.04999924  -0.32999998  50.19000244
H    24.47000122  -0.43000001  50.70000076
H    23.57000160  -2.82999992  54.19000244
H    15.42000008  -3.49000001  54.09000015
H    26.28999901  -1.72000003  51.84999847
H    25.81000137  -3.17000008  52.83000183
