96

S    17.52000046   1.19999993  57.70000076
C    20.17000008   1.29999995  57.05999756
C    18.90999985   0.97999996  56.62000275
C    18.53000069   0.85000002  55.25000000
C    19.55000114   0.82000005  54.31999969
C    20.88000107   1.08999991  54.72999954
C    22.04000092   0.94999999  53.92000198
C    23.29999924   1.25999999  54.38000107
C    23.50000000   1.85000002  55.65999985
C    22.43999863   1.94999993  56.53999710
C    21.18999863   1.46000004  56.09000397
C    17.07999992   0.81000000  55.10000229
C    16.40999985   1.08000004  56.31000137
C    15.03999901   1.31999993  56.38000107
C    24.93000031   2.16999984  56.00999832
H    25.37904358   1.48574257  56.72989655
H    20.29000092   1.66999996  58.08000183
H    19.38999939   0.64000005  53.26000214
H    21.90000153   0.68000007  52.88000107
H    24.10000038   1.19999993  53.63999939
H    22.63999939   2.16000009  57.58999634
H    14.60000038   1.72999990  57.28000259
H    25.46999931   2.19000006  55.06000137
H    24.84000015   3.22000003  56.32999802
S    13.78000069   0.16000001  52.81999969
C    11.10000038   0.08000001  53.54999924
C    12.38999939   0.41999999  53.88000107
C    12.79999924   0.82999998  55.19000244
C    11.80999947   0.94999999  56.16000366
C    10.46000004   0.69999999  55.86000061
C     9.47000027   0.81000000  56.88000107
C     8.14000034   0.59000003  56.63000107
C     7.79999971   0.05000000  55.35999680
C     8.75000000  -0.16000001  54.38000107
C    10.08999920   0.27000001  54.52999878
C    14.25000000   0.83999997  55.33000183
C    14.93000031   0.46999997  54.13999939
C    16.31000137   0.46000001  53.97999573
C     6.34999990  -0.35999998  55.18000031
H     5.97224045   0.23158583  54.34608078
H    10.88000107  -0.39000002  52.60000229
H    12.13999939   1.26999998  57.14000320
H     9.73999977   1.05999994  57.90000153
H     7.50000000   0.64999998  57.50999832
H     8.55000019  -0.75999999  53.50000000
H    16.87000084   0.11000000  53.11999893
H     5.80999947  -0.23000000  56.11999893
H     6.21999979  -1.43000007  54.94999695
S    18.02000046   2.34999990  51.83000183
C    20.75000000   2.32999992  51.22000122
C    19.47000122   1.94999993  50.86999893
C    19.15999985   1.58999991  49.52000046
C    20.19000053   1.44999993  48.61999893
C    21.53000069   1.75000000  48.97999573
C    22.60000038   1.58000004  48.06000137
C    23.90000153   1.92000008  48.34000015
C    24.18000031   2.45000005  49.62999725
C    23.15999985   2.66000009  50.52999878
C    21.80999947   2.28999996  50.28999710
C    17.71999931   1.48000002  49.33000183
C    16.97999954   1.88999999  50.47000122
C    15.59000015   2.02999997  50.41999817
C    25.58000183   2.86000013  50.02999878
H    25.94426155   2.18147612  50.80137634
H    20.79000092   2.75999999  52.22000122
H    19.93999863   1.16999996  47.60000229
H    22.20999908   1.22000003  47.11000061
H    24.65999985   1.65999997  47.61000061
H    23.36000061   3.15000010  51.49000168
H    15.19000053   2.54999995  51.27999878
H    26.12999916   2.73999977  49.09000015
H    25.69999886   3.91000009  50.34000015
S    14.60000038   0.54000002  46.90000153
C    11.87000084   0.37000000  47.55000305
C    13.14000034   0.79999995  47.88000107
C    13.42000008   1.42000008  49.13999939
C    12.42000008   1.61000001  50.06999969
C    11.11999989   1.18000007  49.72999954
C    10.01999950   1.31999993  50.63000107
C     8.73000050   0.97000003  50.30000305
C     8.39999962   0.48999998  49.01000214
C     9.46000004   0.19999999  48.18000031
C    10.80999947   0.55000001  48.47000122
C    14.85999966   1.50999999  49.34999847
C    15.62999916   1.13000000  48.22000122
C    17.01000023   1.14999998  48.16999817
C     7.00000000   0.08000001  48.61000061
H     6.64358568   0.64313447  47.74747467
H    11.61999893  -0.12000000  46.60999680
H    12.51000023   2.02999997  51.07999802
H    10.26999950   1.84000003  51.55000305
H     7.99000025   0.96000004  51.10000229
H     9.19000053  -0.37000000  47.29000092
H    17.50000000   0.94999999  47.22000122
H     6.38000011   0.17999999  49.51000214
H     7.09000015  -0.96000004  48.29000092
