96

S    17.53999901   2.44000006  57.56000137
C    20.23999977   2.61000013  56.81999969
C    18.95000076   2.20000005  56.52000046
C    18.59000015   1.58000004  55.28999710
C    19.61000061   1.24000001  54.41999817
C    20.94000053   1.57000005  54.73999786
C    21.94999886   1.41000009  53.75000000
C    23.28000069   1.63000000  54.01000214
C    23.62999916   2.16999984  55.27999878
C    22.67000008   2.59000015  56.17000198
C    21.30000114   2.30999994  55.93000031
C    17.15999985   1.28999996  55.18000031
C    16.46000099   1.77999997  56.31999969
C    15.08999920   2.02999997  56.32999802
C    25.06000137   2.61000013  55.47999954
H    25.48223495   1.99454045  56.27437210
H    20.36000061   3.08999991  57.77999878
H    19.40999985   0.82000005  53.43999863
H    21.64999962   0.97999996  52.78999710
H    23.97000122   1.39999998  53.20999908
H    22.95999908   3.19999981  57.02999878
H    14.59000015   2.31999993  57.25000000
H    25.51000214   2.56000018  54.47999954
H    25.15999985   3.68999982  55.68000031
S    13.92000008   0.52999997  52.84999847
C    11.21000099   0.51999998  53.54000092
C    12.51000023   0.85000002  53.88000107
C    12.89000034   1.38999999  55.13999939
C    11.89000034   1.54999995  56.09000397
C    10.54999924   1.28999996  55.73999786
C     9.48000050   1.56000006  56.65000153
C     8.19999981   1.16999996  56.36000061
C     7.83999968   0.51999998  55.13999939
C     8.82999992   0.31000000  54.20999908
C    10.15999985   0.74000001  54.47000122
C    14.32999992   1.57000005  55.25000000
C    15.03000069   1.00000000  54.15000153
C    16.39999962   0.75000000  54.15000153
C     6.38000011   0.27000001  54.86999893
H     5.91270924   0.77977204  54.02745819
H    11.03999996   0.12000000  52.55000305
H    12.17000008   1.95999992  57.05999756
H     9.72000027   1.95999992  57.63000107
H     7.37999964   1.38000000  57.04999924
H     8.61999989  -0.05000000  53.20999908
H    16.84999847   0.32999998  53.25000000
H     5.82999992   0.54000002  55.77999878
H     6.28000021  -0.82000005  54.78000259
S    14.37999916  -1.28999996  49.97000122
C    11.75000000  -1.99000001  50.58000183
C    13.09000015  -2.16999984  50.81999969
C    13.57999992  -2.80999994  52.00000000
C    12.65999985  -3.37000012  52.88000107
C    11.28000069  -3.19000006  52.64999771
C    10.31000042  -3.58999991  53.61999893
C     8.96000004  -3.33999991  53.47999954
C     8.52000046  -2.80999994  52.22999954
C     9.39000034  -2.38999987  51.25999832
C    10.78999996  -2.54999995  51.45999908
C    15.00000000  -2.52999997  52.15999985
C    15.62000084  -1.76999998  51.13999939
C    16.93000031  -1.29999995  51.12999725
C     7.02000046  -2.68000007  52.06999969
H     6.65617657  -2.70140147  51.04273224
H    11.59000015  -1.33000004  49.72999954
H    12.97999954  -3.86999989  53.79000092
H    10.67999935  -3.89999986  54.59000015
H     8.25000000  -3.67000008  54.22000122
H     9.13999939  -2.01999998  50.27000046
H    17.25000000  -0.67000002  50.31000137
H     6.44999981  -3.38999987  52.68000031
H     6.78999996  -1.72999990  52.56999969
S    18.40999985  -3.17999983  54.33000183
C    21.07000160  -2.45000005  53.67000198
C    19.72999954  -2.50999975  53.34999847
C    19.19000053  -1.76999998  52.25000000
C    20.03999901  -1.21000004  51.31999969
C    21.44000053  -1.30999994  51.52000046
C    22.34000015  -0.82000005  50.52999878
C    23.68999863  -0.82000005  50.77999878
C    24.18000031  -1.24000001  52.04000092
C    23.36000061  -1.85000002  52.97000122
C    21.94999886  -1.80000007  52.77000046
C    17.72999954  -1.79000008  52.16999817
C    17.17000008  -2.56000018  53.22000122
C    15.81999969  -2.91000009  53.22999954
C    25.63999939  -1.21000004  52.41000366
H    25.91682243  -1.87721443  53.22627258
H    21.45000076  -2.98000002  54.54000092
H    19.68000031  -0.83999997  50.37000275
H    21.96000099  -0.37000000  49.61999893
H    24.40000153  -0.38000000  50.07999802
H    23.64000130  -2.30999994  53.90999603
H    15.40999985  -3.47000003  54.06000137
H    25.86999893  -0.20999999  52.81000137
H    26.21000099  -1.38000000  51.47999573
