96

S    17.53000069   2.00000000  57.55000305
C    20.27000046   1.94000006  56.79999924
C    18.94000053   1.77999997  56.50000000
C    18.60000038   1.22000003  55.22999573
C    19.55999947   1.16999996  54.23999786
C    20.88000107   1.63000000  54.45000076
C    21.94999886   1.50000000  53.52000427
C    23.25000000   1.87000012  53.79000092
C    23.59000015   2.29999995  55.10000229
C    22.65000153   2.20000005  56.10000229
C    21.28000069   1.92000008  55.80999756
C    17.15999985   1.00999999  55.06000137
C    16.47999954   1.51999998  56.19999695
C    15.08999920   1.58999991  56.18000031
C    25.00999832   2.70000005  55.38999939
H    25.52818489   2.15341902  56.17792892
H    20.43999863   2.16999984  57.84999847
H    19.27000046   0.75000000  53.27999878
H    21.55999947   1.18000007  52.56000137
H    23.94000053   1.85000002  52.95000076
H    22.81999969   2.56000018  57.11000061
H    14.48999977   1.85000002  57.04000092
H    25.55000114   2.54999995  54.45000076
H    25.15000153   3.75999975  55.65999985
S    14.04000092   0.48999998  52.50000000
C    11.35000038   0.50000000  53.11000061
C    12.63000011   0.75999999  53.54000092
C    12.94000053   1.18000007  54.87999725
C    11.87999916   1.30999994  55.75000000
C    10.54999924   1.02999997  55.35999680
C     9.43000031   1.23000002  56.22000122
C     8.15999985   0.78000003  55.91999817
C     7.96000004   0.25000000  54.61999893
C     8.98999977   0.02000000  53.73000336
C    10.31000042   0.43000001  54.06999969
C    14.39000034   1.25999999  55.01999664
C    15.11000061   0.85000002  53.87000275
C    16.47999954   0.59999996  53.92000198
C     6.58999968  -0.32999998  54.36999893
H     5.97801208   0.17524564  53.62280655
H    11.28999901   0.24000001  52.05999756
H    12.02999973   1.67999995  56.77000046
H     9.72999954   1.58999991  57.19999695
H     7.31999969   0.79999995  56.60999680
H     8.93000031  -0.56999999  52.81999969
H    16.97000122   0.41999999  52.95999908
H     6.05999994  -0.34999999  55.33000183
H     6.71999979  -1.41000009  54.20999908
S    17.54999924   2.34999990  51.39999771
C    20.22000122   2.53999996  50.68000031
C    18.96999931   2.07999992  50.35999680
C    18.57999992   1.44999993  49.13000107
C    19.61000061   1.28999996  48.22999954
C    20.92000008   1.76999998  48.46000290
C    21.97000122   1.53999996  47.51999664
C    23.26999855   1.74000001  47.91999817
C    23.59000015   2.57999992  49.02000046
C    22.56000137   2.94999981  49.84000397
C    21.22999954   2.46000004  49.68999863
C    17.13999939   1.29999995  49.02999878
C    16.43000031   1.94999993  50.07999802
C    15.07999992   2.25000000  50.05000305
C    25.00999832   3.00999999  49.31000137
H    25.46648407   2.34667158  50.04465485
H    20.32999992   3.07000017  51.62000275
H    19.48999977   0.75999999  47.29000092
H    21.77999878   1.08000004  46.56000137
H    23.98999977   1.47000003  47.14000320
H    22.69000053   3.45000005  50.79999924
H    14.70000076   2.70000005  50.96000290
H    25.71000099   3.00000000  48.46000290
H    25.00000000   4.01999998  49.73999786
S    13.97999954   0.32000002  46.69000244
C    11.21999931   0.55000001  47.36000061
C    12.55000019   0.75000000  47.65999603
C    12.89000034   1.52999997  48.81999969
C    11.87000084   1.75999999  49.72000122
C    10.48999977   1.58000004  49.45999908
C     9.43000031   1.80999994  50.38999939
C     8.13000011   1.58000004  50.00000000
C     7.81000042   1.00999999  48.73000336
C     8.82000065   0.69999999  47.84999847
C    10.17000008   1.02999997  48.16999817
C    14.32000065   1.74000001  48.97999573
C    15.00000000   1.05999994  47.94000244
C    16.38000107   0.85000002  47.95000076
C     6.51999998   0.25999999  48.47000122
H     6.08572149   0.70139819  47.57296753
H    11.05999947  -0.06000000  46.46999741
H    12.18999958   1.99000001  50.72999954
H     9.70000076   2.14000010  51.38000107
H     7.34000015   1.67999995  50.72999954
H     8.56999969   0.09999999  46.97999954
H    16.90999985   0.50000000  47.06999969
H     5.79999971   0.45000002  49.27000046
H     6.58999968  -0.82999998  48.40999985
