96

S    17.13000107   1.69000006  57.60000229
C    19.82999992   1.65000010  56.88000107
C    18.53000069   1.29999995  56.58000183
C    18.11000061   0.83999997  55.28999710
C    19.11999893   0.79999995  54.34999847
C    20.45999908   1.18000007  54.56999969
C    21.47999954   1.19000006  53.57999802
C    22.79000092   1.43000007  53.94000244
C    23.16999817   1.84000003  55.25000000
C    22.20000076   1.86000001  56.23000336
C    20.85000038   1.53999996  55.90999985
C    16.65999985   0.73000002  55.17000198
C    16.00000000   1.25999999  56.31000137
C    14.60999966   1.38999999  56.36000061
C    24.57999992   2.30999994  55.51000214
H    25.06336212   1.66314697  56.24214935
H    20.27000046   1.92000008  57.84000015
H    18.82999992   0.62000000  53.31999969
H    21.12999916   1.13999999  52.55000305
H    23.54999924   1.56000006  53.18000031
H    22.37999916   1.98000002  57.29999924
H    14.19999981   1.94000006  57.19999695
H    25.07999802   2.27999997  54.54000092
H    24.41999817   3.31999993  55.90000153
S    13.40000057   0.50999999  52.68000031
C    10.75000000   0.09999999  53.40999985
C    12.00000000   0.54000002  53.76999664
C    12.39999962   0.93000001  55.08999634
C    11.36000061   1.08000004  56.00000000
C    10.03000069   0.74000001  55.65999985
C     8.97999954   1.04999995  56.56999969
C     7.65999985   0.82999998  56.25999832
C     7.36000013   0.19000000  55.02999878
C     8.31999969   0.01000000  54.06000137
C     9.68000031   0.31000000  54.33000183
C    13.83999920   0.97999996  55.27000046
C    14.50000000   0.57999998  54.08000183
C    15.88000107   0.45000002  54.05000305
C     5.95000029  -0.20999999  54.64000320
H     5.48734379   0.50889641  53.96380997
H    10.62000084  -0.28999999  52.41000366
H    11.54999924   1.33000004  57.04000092
H     9.30000019   1.31999993  57.56999969
H     6.97000027   0.96000004  57.09000015
H     8.05000019  -0.17999999  53.02999878
H    16.36000061   0.07000000  53.15000153
H     5.29999971  -0.28000000  55.52000046
H     5.91000032  -1.19999993  54.16999817
S    17.52000046   2.06999993  51.59999847
C    20.19000053   2.52999997  50.86000061
C    18.93000031   2.10999990  50.52000046
C    18.55999947   1.70000005  49.19000244
C    19.56999969   1.47000003  48.27000046
C    20.86999893   1.90999997  48.60000229
C    21.90999985   1.81999993  47.63000107
C    23.22000122   2.16000009  47.90999985
C    23.52999878   2.73999977  49.16999817
C    22.55000114   2.89000010  50.13000107
C    21.21999931   2.46000004  49.87999725
C    17.12000084   1.75999999  49.03999710
C    16.39000130   2.01999998  50.22999573
C    15.00000000   2.00999999  50.31000137
C    24.96000099   3.14000010  49.43999863
H    25.38781548   2.53392696  50.23859024
H    20.40999985   2.96999979  51.83000183
H    19.34000015   1.00000000  47.31999969
H    21.54999924   1.66999996  46.62000275
H    24.06999969   2.02999997  47.25999832
H    22.79999924   3.28999996  51.11000061
H    14.50000000   2.28999996  51.24000168
H    25.48000145   3.03999996  48.47999954
H    25.07999802   4.19999981  49.72999954
S    13.82999992   0.52999997  46.90000153
C    11.10999966   0.28000000  47.60000229
C    12.38999939   0.64000005  47.94000244
C    12.79000092   1.28000009  49.15999985
C    11.75000000   1.52999997  50.02999878
C    10.39999962   1.25000000  49.75000000
C     9.30000019   1.50999999  50.61999893
C     7.96999979   1.38999999  50.27999878
C     7.69000006   0.76999998  49.03999710
C     8.69999981   0.46000001  48.15000153
C    10.06000042   0.69000000  48.47000122
C    14.22000027   1.53999996  49.25000000
C    14.96999931   1.12000000  48.11999893
C    16.32999992   1.38000000  47.95000076
C     6.30000019   0.35999998  48.59000397
H     5.91585255   0.92910683  47.74345398
H    10.90999985  -0.20999999  46.65000153
H    11.97999954   2.10999990  50.93000031
H     9.53999996   1.85000002  51.62000275
H     7.18999958   1.61000001  51.00999832
H     8.50000000  -0.06000000  47.21000290
H    16.61999893   1.24000001  46.90999985
H     5.66999960   0.46000001  49.47999954
H     6.38999987  -0.73000002  48.54999924
