96

S    17.38000107   1.79000008  57.47000122
C    20.00000000   1.97000003  56.59000015
C    18.73999977   1.47000003  56.38000107
C    18.37000084   0.88999999  55.12000275
C    19.36000061   0.82000005  54.15000153
C    20.69000053   1.25000000  54.38000107
C    21.70999908   0.99000001  53.43000031
C    23.03999901   1.28999996  53.66000366
C    23.35000038   1.81999993  54.93000031
C    22.40999985   2.15000010  55.89000320
C    21.04000092   1.87000012  55.63000107
C    16.92000008   0.79999995  55.04000092
C    16.25000000   1.31999993  56.18000031
C    14.86999989   1.38000000  56.24000168
C    24.76000023   2.21000004  55.33000183
H    25.17968369   1.49867368  56.04132462
H    20.29999924   2.24000001  57.60000229
H    19.04000092   0.41000003  53.20000076
H    21.38999939   0.46000001  52.54000092
H    23.78000069   1.12000000  52.88999939
H    22.65000153   2.49000001  56.88999939
H    14.27999973   1.58000004  57.14000320
H    25.34000015   2.32999992  54.40999985
H    24.65999985   3.19999981  55.79000092
S    13.67000008   0.02000000  52.70000076
C    11.03999996  -0.19999999  53.50999832
C    12.30999947   0.23000000  53.81999969
C    12.69000053   0.94999999  55.00000000
C    11.69999981   1.08999991  55.94999695
C    10.36000061   0.71000004  55.73999786
C     9.35000038   0.88000000  56.72999954
C     8.06999969   0.50999999  56.42000198
C     7.72000027   0.01000000  55.13999939
C     8.67999935  -0.23000000  54.19000244
C    10.03000069   0.11000000  54.47000122
C    14.14000034   1.07000005  55.07999802
C    14.81999969   0.59000003  53.94000244
C    16.20000076   0.52999997  53.86000061
C     6.28999996  -0.41999999  54.84000397
H     5.88312244   0.09395084  53.96913910
H    10.80999947  -0.54000002  52.50999832
H    11.92999935   1.51999998  56.91999817
H     9.68999958   1.38999999  57.63000107
H     7.25000000   0.75000000  57.09000015
H     8.52000046  -0.69000000  53.22000122
H    16.77999878   0.28000000  52.97999954
H     5.69000006  -0.19000000  55.72999954
H     6.21000004  -1.50999999  54.77000427
S    14.42999935  -1.98000002  49.86999893
C    11.82999992  -2.61000013  50.38999939
C    13.12000084  -2.66999984  50.84999847
C    13.53999996  -3.19999981  52.11000061
C    12.53000069  -3.68000007  52.94000244
C    11.18000031  -3.49000001  52.57999802
C    10.15999985  -4.03999996  53.40999985
C     8.82999992  -4.03999996  53.06999969
C     8.43999958  -3.42000008  51.84999847
C     9.39999962  -2.92000008  51.00999832
C    10.78999996  -3.00000000  51.27999878
C    14.96999931  -2.99000001  52.29000092
C    15.57000065  -2.38000011  51.17000198
C    16.88999939  -1.92000008  51.18000031
C     7.00999975  -2.96999979  51.65000153
H     6.64083385  -3.41725874  50.72708511
H    11.54999924  -2.10999990  49.47000122
H    12.75000000  -4.53999996  53.56999969
H    10.44000053  -4.39000034  54.40000153
H     8.19000053  -4.33999968  53.88999939
H     9.11000061  -2.29999995  50.15999603
H    17.35999870  -1.41000009  50.34999847
H     6.38000011  -3.19999981  52.51999664
H     7.03999996  -1.87999988  51.63000107
S    18.31999969  -3.44000006  54.58000183
C    21.00000000  -3.07000017  53.64999771
C    19.63999939  -2.92000008  53.50000000
C    19.13999939  -2.30999994  52.29999924
C    20.07999802  -1.93000007  51.36000061
C    21.47000122  -1.87999988  51.62000275
C    22.39000130  -1.16999996  50.79999924
C    23.72999954  -1.12000000  51.10000229
C    24.20999908  -1.56000006  52.36000061
C    23.34000015  -2.21000004  53.20999908
C    21.97999954  -2.42000008  52.84999847
C    17.69000053  -2.27999997  52.27000427
C    17.11000061  -2.94999981  53.37999725
C    15.77000046  -3.30999994  53.40000153
C    25.61000061  -1.23000002  52.81000137
H    25.89349937  -1.96709883  53.56127548
H    21.28000069  -3.56999993  54.56999969
H    19.76000023  -1.43000007  50.45000076
H    22.06000137  -0.54000002  49.97000122
H    24.43000031  -0.52999997  50.52000046
H    23.71000099  -2.66999984  54.12000275
H    15.36000061  -3.86999989  54.23999786
H    25.62000084  -0.19999999  53.18000031
H    26.25000000  -1.25000000  51.91999817
