96

S    17.53000069   2.31999993  57.74000168
C    20.30999947   2.25000000  57.16999817
C    19.01000023   1.94000006  56.84000015
C    18.70000076   1.44999993  55.52999878
C    19.59000015   1.36999989  54.47999954
C    20.92000008   1.70000005  54.82999802
C    21.90000153   1.62000000  53.81000137
C    23.16999817   2.03999996  54.13000107
C    23.59999847   2.45000005  55.41999817
C    22.63999939   2.50000000  56.40999603
C    21.28999901   2.10999990  56.16000366
C    17.28000069   1.19000006  55.34000015
C    16.51000023   1.65000010  56.45000076
C    15.11999989   1.65999997  56.47999573
C    25.05000114   2.82999992  55.63000107
H    25.56451416   2.17970991  56.33745956
H    20.63999939   2.61999989  58.13999939
H    19.34000015   1.21000004  53.43000031
H    21.68999863   1.03999996  52.90999985
H    23.88999939   1.93000007  53.31999969
H    22.88000107   2.94999981  57.36000061
H    14.61999989   2.13000011  57.31999969
H    25.52999878   2.89999986  54.65000153
H    24.89999962   3.84999990  56.00999832
S    14.04999924   0.25999999  52.95000076
C    11.35000038   0.28000000  53.62999725
C    12.63000011   0.71000004  53.92000198
C    12.98999977   1.22000003  55.20000076
C    11.97999954   1.39999998  56.12999725
C    10.64000034   1.08999991  55.79999924
C     9.59000015   1.41000009  56.70999908
C     8.30000019   1.12000000  56.35000229
C     7.99000025   0.37000000  55.18000031
C     8.94999981   0.09000000  54.25000000
C    10.29000092   0.48999998  54.54000092
C    14.44000053   1.24000001  55.33000183
C    15.18000031   0.69999999  54.23999786
C    16.56999969   0.71999997  54.22999954
C     6.57999992  -0.13000000  54.99000168
H     6.04145288   0.51483929  54.29555893
H    11.14999962  -0.12000000  52.63999939
H    12.25999928   1.75999999  57.11999893
H     9.80000019   1.85000002  57.68000031
H     7.60999966   1.54999995  57.06999969
H     8.73000050  -0.44000000  53.31999969
H    17.05999947   0.34999999  53.33000183
H     6.11999989  -0.17999999  55.98999786
H     6.58999968  -1.13999999  54.56999969
S    13.99000072  -1.54999995  49.72999954
C    11.31999969  -1.94000006  50.40999985
C    12.64000034  -2.10999990  50.73999786
C    13.12000084  -2.73999977  51.93000031
C    12.18999958  -3.23000002  52.83000183
C    10.81999969  -3.14000010  52.49000168
C     9.81000042  -3.52999973  53.40999985
C     8.46000004  -3.33999991  53.22999954
C     8.01000023  -2.76999998  52.01000214
C     8.94999981  -2.32999992  51.10000229
C    10.34999943  -2.50000000  51.27999878
C    14.57999992  -2.72000027  52.00000000
C    15.19999981  -2.00999999  50.93999863
C    16.52000046  -1.58000004  50.97999954
C     6.57000017  -2.34999990  51.83000183
H     6.29258347  -2.73411536  50.84837341
H    10.92000008  -1.30999994  49.61999893
H    12.43000031  -3.70000005  53.77999878
H    10.19000053  -3.93000007  54.34999847
H     7.86000013  -3.70000005  54.06000137
H     8.64000034  -1.75000000  50.22999573
H    16.92000008  -0.90000004  50.22999573
H     6.01000023  -2.84999990  52.63000107
H     6.48999977  -1.25999999  51.88999939
S    17.92000008  -3.24000001  54.31000137
C    20.62000084  -2.54999995  53.75999832
C    19.27000046  -2.45000005  53.47999954
C    18.78999901  -1.77999997  52.30999756
C    19.72999954  -1.25000000  51.45000076
C    21.11999893  -1.24000001  51.72000122
C    22.13000107  -0.68000007  50.87999725
C    23.47999954  -0.82000005  51.13999939
C    23.88000107  -1.53999996  52.29999924
C    22.95000076  -2.07999992  53.15999985
C    21.55999947  -1.94999993  52.88999939
C    17.38000107  -2.00000000  52.01000214
C    16.77999878  -2.75000000  53.04999924
C    15.40999985  -3.00999999  53.08000183
C    25.32999992  -1.95999992  52.36999893
H    25.82878685  -1.67497826  53.29632187
H    20.94000053  -3.12999988  54.61999893
H    19.37000084  -0.96000004  50.47000122
H    21.77000046  -0.09999999  50.04000092
H    24.20000076  -0.52999997  50.38999939
H    23.21000099  -2.56999993  54.09000015
H    14.93999958  -3.47000003  53.95000076
H    25.88000107  -1.48000002  51.56000137
H    25.53999901  -3.03999996  52.29000092
