96

S    18.01000023   2.23000002  57.71999741
C    20.72999954   2.23000002  57.04000092
C    19.43000031   1.89999998  56.70999908
C    19.03000069   1.36999989  55.44000244
C    20.00000000   1.11000001  54.50000000
C    21.35999870   1.39999998  54.78000259
C    22.34000015   1.30999994  53.75000000
C    23.64999962   1.62000000  54.02999878
C    24.05999947   1.95999992  55.34000015
C    23.08000183   2.30999994  56.24000168
C    21.68999863   2.06999993  56.00999832
C    17.57999992   1.28999996  55.27999878
C    16.87999916   1.75000000  56.43000031
C    15.51000023   1.94000006  56.39999771
C    25.48000145   1.74000001  55.83000183
H    25.62296486   2.21178174  56.80215454
H    21.02000046   2.68000007  57.97999954
H    19.63999939   0.68000007  53.56999969
H    21.97999954   1.00999999  52.77000046
H    24.47999954   1.35000002  53.37999725
H    23.26999855   2.52999997  57.28000259
H    15.00000000   2.56999993  57.12999725
H    25.59999847   0.65999997  56.00999832
H    26.14999962   2.24000001  55.12000275
S    14.32000065   0.45000002  52.91999817
C    11.59000015   0.73000002  53.54999924
C    12.90999985   1.00999999  53.82999802
C    13.30999947   1.48000002  55.13000107
C    12.30999947   1.63000000  56.06999969
C    10.93999958   1.38000000  55.83000183
C     9.88000011   1.38999999  56.77000046
C     8.60999966   0.99000001  56.42000198
C     8.26000023   0.55000001  55.12000275
C     9.23999977   0.56999999  54.15999985
C    10.57000065   0.92000002  54.51000214
C    14.75000000   1.49000001  55.31000137
C    15.44999981   0.99000001  54.18000031
C    16.84000015   0.88000000  54.16999817
C     6.94000006  -0.16000001  54.86000061
H     6.39748335   0.42534661  54.11760712
H    11.26000023   0.34999999  52.57999802
H    12.55000019   1.77999997  57.11999893
H    10.13000011   1.74000001  57.77000046
H     7.88000011   0.76999998  57.19999695
H     9.10000038   0.20999999  53.13999939
H    17.32999992   0.34999999  53.36000061
H     6.48999977  -0.23000000  55.86000061
H     7.28999996  -1.14999998  54.56999969
S    14.27000046  -1.57000005  50.01999664
C    11.61999893  -2.00999999  50.90000153
C    12.97999954  -2.15000010  51.09000397
C    13.40999985  -2.87999988  52.23999786
C    12.46000099  -3.40000010  53.11000061
C    11.05999947  -3.26999998  52.97000122
C    10.06999969  -3.98000002  53.70999908
C     8.76000023  -3.96000004  53.30999756
C     8.36000061  -3.03999996  52.30999756
C     9.27999973  -2.44000006  51.47999573
C    10.65999985  -2.47000003  51.84000015
C    14.84000015  -2.69000006  52.41000366
C    15.40999985  -1.97000003  51.31999969
C    16.76000023  -1.65000010  51.25999832
C     6.89000034  -2.76999998  52.09999847
H     6.44168282  -3.35352349  51.29587555
H    11.21000099  -1.81999993  49.91000366
H    12.81000042  -4.11999989  53.83999634
H    10.44999981  -4.51000023  54.58000183
H     8.05999947  -4.53999996  53.90999603
H     8.92000008  -2.01999998  50.54000092
H    17.28999901  -1.19999993  50.43000031
H     6.34000015  -2.96999979  53.02999878
H     6.77999973  -1.67999995  51.98999786
S    18.27999878  -3.23000002  54.62999725
C    20.88999939  -2.59999990  53.86000061
C    19.55000114  -2.63000011  53.54999924
C    19.00000000  -2.05999994  52.35000229
C    19.84000015  -1.43000007  51.45999908
C    21.24000168  -1.44999993  51.68000031
C    22.19000053  -0.82999998  50.81999969
C    23.52000046  -0.82000005  51.14999771
C    24.05999947  -1.66999996  52.15000153
C    23.15999985  -2.25000000  53.02999878
C    21.76000214  -2.13000011  52.84000015
C    17.54999924  -2.11999989  52.31999969
C    17.02000046  -2.76999998  53.46000290
C    15.65999985  -3.07000017  53.47999954
C    25.55000114  -1.81999993  52.36000061
H    25.83524323  -1.53475809  53.37260818
H    21.30000114  -3.05000019  54.75999832
H    19.50000000  -0.96000004  50.54000092
H    21.81999969  -0.34999999  49.91000366
H    24.18999863  -0.23000000  50.52999878
H    23.54999924  -2.91000009  53.80000305
H    15.24000072  -3.68000007  54.27000046
H    26.09000015  -1.33000004  51.52999878
H    25.73999786  -2.89999986  52.36000061
