96

S    17.75000000   1.66999996  57.60000229
C    20.48000145   1.85000002  56.84000015
C    19.19000053   1.43999994  56.59000015
C    18.85000038   1.03999996  55.26000214
C    19.84000015   0.90000004  54.29999924
C    21.18000031   1.24000001  54.61000061
C    22.20999908   1.36999989  53.61999893
C    23.51000023   1.71000004  53.88000107
C    23.87000084   2.10999990  55.19000244
C    22.85000038   2.17999983  56.11999893
C    21.54999924   1.63000000  55.93999863
C    17.40999985   0.93000001  55.07999802
C    16.69000053   1.44999993  56.18999863
C    15.31999969   1.65000010  56.24000168
C    25.22999954   2.66000009  55.58000183
H    25.62208939   2.21087885  56.49250031
H    20.62000084   2.38000011  57.77999878
H    19.57999992   0.69000000  53.27000046
H    21.90999985   1.15999997  52.60000229
H    24.23000145   1.59999990  53.06999969
H    23.00000000   2.73000002  57.04000092
H    14.89999962   1.89999998  57.21000290
H    26.01000023   2.56999993  54.80999756
H    25.15999985   3.74000025  55.70999908
S    14.22000027   0.56000000  52.56999969
C    11.47999954   0.44000000  53.20000076
C    12.76999950   0.79000002  53.55999756
C    13.15000057   1.26999998  54.85000229
C    12.13000107   1.47000003  55.77000046
C    10.80999947   1.04999995  55.47999954
C     9.88000011   1.01999998  56.55000305
C     8.55000019   0.71000004  56.37000275
C     8.15999985   0.34999999  55.05000305
C     9.09000015   0.20999999  54.05000305
C    10.46000004   0.56999999  54.16999817
C    14.59000015   1.33000004  55.07999802
C    15.29999924   0.93000001  53.93000031
C    16.65999985   0.62000000  53.94000244
C     6.71999979  -0.06000000  54.85000229
H     6.24593019   0.30085903  53.93723679
H    11.25000000   0.02000000  52.22999954
H    12.35000038   1.87000012  56.76000214
H    10.17000008   1.36000013  57.54000092
H     7.85000038   0.56000000  57.18999863
H     8.71999931  -0.09999999  53.06999969
H    17.15999985   0.32999998  53.02999878
H     6.07999992   0.39999998  55.61000061
H     6.72999954  -1.14999998  54.93000031
S    17.94000053   2.54999995  51.45999908
C    20.62999916   2.50000000  50.70999908
C    19.32999992   2.16999984  50.41999817
C    18.94000053   1.51999998  49.20000076
C    19.93999863   1.28000009  48.27999878
C    21.31000137   1.56000006  48.50000000
C    22.36000061   1.41000009  47.55000305
C    23.68000031   1.66999996  47.84000015
C    23.97000122   2.25999999  49.09999847
C    22.98999977   2.48000002  50.04000092
C    21.63000107   2.16000009  49.75999832
C    17.48999977   1.36999989  49.15999985
C    16.79000092   1.95999992  50.24000168
C    15.43000031   2.23000002  50.20999908
C    25.38000107   2.69000006  49.45999908
H    25.77915001   2.11265802  50.29393768
H    20.97999954   3.12999988  51.52000046
H    19.63000107   0.79999995  47.35000229
H    22.04999924   0.88000000  46.65000153
H    24.46000099   1.65000010  47.08000183
H    23.19999886   2.75999999  51.06999969
H    14.93999958   2.79999995  50.98999786
H    26.05999947   2.57999992  48.61000061
H    25.36999893   3.76999998  49.66999817
S    14.25000000   1.02999997  46.63999939
C    11.51999950   0.94999999  47.30999756
C    12.81000042   1.29999995  47.63999939
C    13.25000000   1.85000002  48.88000107
C    12.23999977   1.98000002  49.81999969
C    10.88000107   1.74000001  49.52999878
C     9.85000038   1.71000004  50.52000046
C     8.56999969   1.33000004  50.21999741
C     8.10000038   1.01999998  48.90999603
C     9.11999989   0.93000001  47.98999786
C    10.48999977   1.21000004  48.25000000
C    14.68999958   1.86000001  49.08000183
C    15.39000034   1.34000003  47.95999908
C    16.76000023   1.12000000  47.98999786
C     6.69000053   0.56000000  48.61000061
H     6.28975296   0.98168874  47.68800354
H    11.39999962   0.39999998  46.38000107
H    12.46000099   2.09000015  50.87999725
H    10.05000019   1.98000002  51.55000305
H     7.95000029   1.16999996  51.09000397
H     8.82000065   0.52999997  47.02000046
H    17.31999969   0.85000002  47.09999847
H     6.15000010   0.83999997  49.52999878
H     6.63000011  -0.52999997  48.50999832
