96

S    17.20000076   2.05999994  57.36000061
C    19.90999985   1.75999999  56.79999924
C    18.60999870   1.51999998  56.42000198
C    18.30000114   0.92000002  55.14999771
C    19.32999992   0.64999998  54.27000046
C    20.66999817   0.93999994  54.59999847
C    21.70999908   0.97000003  53.61999893
C    23.01000214   1.08000004  54.02999878
C    23.36000061   1.54999995  55.33000183
C    22.32999992   1.67999995  56.23000336
C    20.96999931   1.41000009  55.93000031
C    16.86000061   0.94999999  54.95999908
C    16.15999985   1.64000010  55.97999954
C    14.78000069   1.64000010  56.04000092
C    24.73999977   2.07999992  55.65000153
H    25.24524498   1.46801257  56.39719391
H    20.15000153   2.49000001  57.56000137
H    19.04999924   0.39999998  53.25000000
H    21.53000069   0.61000001  52.61000061
H    23.78000069   1.00999999  53.27000046
H    22.53000069   2.22000003  57.15999985
H    14.42999935   2.02999997  56.98999786
H    25.34000015   2.02999997  54.72999954
H    24.63999939   3.12000012  55.97999954
S    13.60999966  -0.14000000  52.69000244
C    10.90999985   0.09000000  53.30999756
C    12.20999908   0.38000000  53.64999771
C    12.57999992   0.96000004  54.91000366
C    11.56000042   1.36999989  55.75000000
C    10.21999931   1.08000004  55.40000153
C     9.23999977   1.38000000  56.38999939
C     7.94000053   0.97000003  56.20999908
C     7.59000015   0.22000000  55.06000137
C     8.50000000  -0.07000000  54.06000137
C     9.85000038   0.34999999  54.20999908
C    14.02999973   1.08999991  54.99000168
C    14.73000050   0.54000002  53.88999939
C    16.11999893   0.48000002  53.87000275
C     6.14000034   0.00000000  54.69999695
H     5.71233845   0.53457677  53.85180283
H    10.67000008  -0.44000000  52.38999939
H    11.64000034   1.75000000  56.76000214
H     9.44999981   1.80999994  57.36999893
H     7.17000008   1.22000003  56.93000031
H     8.30000019  -0.71000004  53.20999908
H    16.48999977  -0.12000000  53.04000092
H     5.51000023   0.24000001  55.56999969
H     5.92000008  -1.05999994  54.54999924
S    14.14000034  -2.01999998  49.68999863
C    11.52999973  -2.63999987  50.34999847
C    12.86000061  -2.77999997  50.65999985
C    13.27000046  -3.32999992  51.91999817
C    12.30000019  -3.58999991  52.88000107
C    10.93000031  -3.51000023  52.55000305
C     9.85999966  -3.86000013  53.41999817
C     8.52000046  -3.76999998  53.09999847
C     8.15999985  -3.17999983  51.86999893
C     9.13999939  -2.80999994  50.97999954
C    10.52000046  -3.07999992  51.24000168
C    14.70999908  -3.19000006  52.02999878
C    15.26999950  -2.37000012  51.00999832
C    16.57999992  -1.89999998  51.04000092
C     6.74000025  -2.70000005  51.66999817
H     6.20669889  -3.21907973  50.87360382
H    11.17000008  -2.06999993  49.48999786
H    12.56999969  -4.00000000  53.85000229
H    10.19999981  -4.19000006  54.40000153
H     7.78999996  -4.11000013  53.82999802
H     8.78999996  -2.31999993  50.06999969
H    16.95999908  -1.24000001  50.26000214
H     6.26999950  -2.82000017  52.64999771
H     6.84000015  -1.65000010  51.38999939
S    17.87999916  -3.47000003  54.50000000
C    20.46999931  -2.52999997  54.13000107
C    19.18000031  -2.61000013  53.66000366
C    18.73999977  -2.09999990  52.38999939
C    19.72999954  -1.70000005  51.50000000
C    21.09999847  -1.79000008  51.84999847
C    22.06999969  -1.47000003  50.84999847
C    23.40999985  -1.56000006  51.16000366
C    23.78999901  -1.94999993  52.47000122
C    22.86000061  -2.30999994  53.40999985
C    21.45999908  -2.16999984  53.18999863
C    17.31999969  -2.26999998  52.15999985
C    16.72999954  -3.00999999  53.22999954
C    15.46000004  -3.56999993  53.15000153
C    25.27000046  -2.21000004  52.61000061
H    25.68369865  -1.91042554  53.57291794
H    20.68000031  -3.00000000  55.08999634
H    19.42000008  -1.28999996  50.54999924
H    21.73000145  -1.05999994  49.89999771
H    24.18999863  -1.38999999  50.41999817
H    23.12000084  -2.75000000  54.36999893
H    15.01999950  -4.09000015  53.99000168
H    25.90999985  -1.69000006  51.88999939
H    25.45000076  -3.28999996  52.51999664
