96

S    17.21999931   1.58000004  57.56000137
C    19.96999931   1.72000003  56.77000046
C    18.63999939   1.51999998  56.49000168
C    18.27999878   1.25000000  55.13000107
C    19.25000000   1.19000006  54.15000153
C    20.62999916   1.34000003  54.45000076
C    21.60000038   1.34000003  53.40999985
C    22.93000031   1.50000000  53.72000122
C    23.29999924   1.93000007  55.01999664
C    22.36999893   1.95999992  56.03000259
C    21.01000023   1.59999990  55.80999756
C    16.82999992   1.16999996  54.95999908
C    16.13999939   1.43000007  56.17000198
C    14.75999928   1.50000000  56.30000305
C    24.75000000   2.27999997  55.30000305
H    25.19924736   1.70952892  56.11292267
H    20.28000069   2.17999983  57.70000076
H    18.90999985   1.10000002  53.13000107
H    21.21000099   1.29999995  52.38999939
H    23.65999985   1.58000004  52.91999817
H    22.62000084   2.38999987  57.00000000
H    14.21000004   1.71000004  57.22000122
H    25.30999947   2.07999992  54.38000107
H    24.63999939   3.35999990  55.47000122
S    13.52000046   0.69999999  52.63000107
C    10.82999992   0.46000001  53.46000290
C    12.13000107   0.82999998  53.73000336
C    12.53000069   1.25000000  55.04000092
C    11.52999973   1.25999999  55.98999786
C    10.17000008   0.94999999  55.76000214
C     9.07999992   1.05999994  56.66999817
C     7.83999968   0.55000001  56.36000061
C     7.48000050   0.04000000  55.07999802
C     8.51000023  -0.02000000  54.16999817
C     9.81999969   0.46999997  54.45000076
C    13.97999954   1.30999994  55.14999771
C    14.65999985   0.93999994  53.95999908
C    16.03999901   0.92000002  53.82999802
C     6.10000038  -0.35999998  54.61999893
H     5.64427662   0.28086129  53.86520386
H    10.65999985  -0.03000000  52.50000000
H    11.73999977   1.43000007  57.04999924
H     9.26999950   1.62000000  57.57999802
H     6.98999977   0.69999999  57.01000214
H     8.42000008  -0.48999998  53.20000076
H    16.54999924   0.44000000  53.00000000
H     5.46999979  -0.48999998  55.51000214
H     6.19000006  -1.34000003  54.13000107
S    17.84000015   2.84000015  51.31000137
C    20.52999878   2.89000010  50.61000061
C    19.25000000   2.49000001  50.27999878
C    18.86999893   1.87000012  49.05000305
C    19.88999939   1.58000004  48.16999817
C    21.21999931   1.94999993  48.44999695
C    22.21999931   1.64000010  47.48000336
C    23.54000092   1.87999988  47.77999878
C    23.88000107   2.56000018  48.97999573
C    22.93000031   2.87999988  49.93000031
C    21.54999924   2.64999986  49.66999817
C    17.42000008   1.72000003  48.95999908
C    16.72000122   2.27999997  50.06000137
C    15.32999992   2.36000013  50.11000061
C    25.32999992   2.79999995  49.34999847
H    25.73475647   2.13960600  50.11690903
H    20.75000000   3.38999987  51.55000305
H    19.67000008   1.16999996  47.18000031
H    21.97999954   1.15999997  46.53999710
H    24.30999947   1.41000009  47.18000031
H    23.15000153   3.45999980  50.81999969
H    14.92000008   2.73999977  51.04000092
H    26.02999878   2.79999995  48.50999832
H    25.40999985   3.84000015  49.69999695
S    14.15999985   0.54000002  46.77000046
C    11.46000004   0.75999999  47.36000061
C    12.76000023   0.97000003  47.77000046
C    13.17000008   1.64000010  48.96999741
C    12.18000031   1.88999999  49.89999771
C    10.82999992   1.56000006  49.61999893
C     9.82999992   1.80000007  50.61000061
C     8.55000019   1.34000003  50.40000153
C     8.19999981   0.74000001  49.15999985
C     9.10000038   0.71000004  48.11999893
C    10.47000027   1.04999995  48.33000183
C    14.60999966   1.79000008  49.05000305
C    15.29999924   1.15999997  47.97999954
C    16.69000053   1.12000000  47.93000031
C     6.77999973   0.23000000  49.02999878
H     6.21249533   0.74784786  48.25677490
H    11.18000031   0.24000001  46.45000076
H    12.41000080   2.42000008  50.81999969
H    10.15999985   2.26999998  51.52999878
H     7.79999971   1.42000008  51.17000198
H     8.75000000   0.25000000  47.19999695
H    17.17000008   0.69999999  47.04999924
H     6.25999975   0.41999999  49.97000122
H     6.90999985  -0.85000002  48.89999771
