96

S    17.17000008   1.74000001  57.52999878
C    19.85000038   2.28999996  56.93999863
C    18.63999939   1.77999997  56.52999878
C    18.35000038   1.25000000  55.22999573
C    19.38999939   1.35000002  54.31999969
C    20.63999939   1.93000007  54.64000320
C    21.70999908   1.87000012  53.69999695
C    22.96999931   2.28999996  54.02999878
C    23.23999786   2.70000005  55.35999680
C    22.26000023   2.63999987  56.32999802
C    20.90999985   2.30999994  56.00000000
C    16.93000031   1.13000000  54.94999695
C    16.17000008   1.50000000  56.09000397
C    14.78999996   1.66999996  56.11000061
C    24.65999985   3.07000017  55.70999908
H    25.18567467   2.41645789  56.40616608
H    19.98999977   2.77999997  57.90000153
H    19.20999908   0.88000000  53.36000061
H    21.51000023   1.36000013  52.76000214
H    23.85000038   2.22000003  53.40000153
H    22.55000114   2.86000013  57.35000229
H    14.29999924   1.90999997  57.04999924
H    25.26000023   3.15000010  54.79999924
H    24.63999939   4.07000017  56.16000366
S    13.73000050   0.69000000  52.44999695
C    11.05999947   0.28000000  53.15000153
C    12.31999969   0.69999999  53.52000427
C    12.63000011   1.18000007  54.82999802
C    11.61000061   1.25999999  55.76000214
C    10.29999924   0.83999997  55.40999985
C     9.26000023   0.92000002  56.38000107
C     8.01000023   0.45000002  56.04999924
C     7.69000006   0.09000000  54.71000290
C     8.67000008   0.04000000  53.74000168
C     9.98999977   0.44000000  54.06999969
C    14.06999969   1.34000003  54.94999695
C    14.82999992   1.13999999  53.76999664
C    16.21000099   1.01999998  53.75000000
C     6.24000025  -0.22000000  54.43000031
H     5.86992979   0.31375554  53.55464172
H    10.93999958  -0.05000000  52.11999893
H    11.87000084   1.31999993  56.81000137
H     9.39000034   1.41000009  57.34000397
H     7.23999977   0.45000002  56.81000137
H     8.40999985  -0.14000000  52.70000076
H    16.84999847   0.93000001  52.87000275
H     5.58000040  -0.06000000  55.28999710
H     6.17999983  -1.28999996  54.19000244
S    14.14999962  -1.63000000  49.92000198
C    11.44999981  -2.27999997  50.54999924
C    12.79000092  -2.23000002  50.87999725
C    13.25000000  -2.77999997  52.11999893
C    12.31999969  -3.37000012  52.95999908
C    10.93000031  -3.28999996  52.75000000
C     9.98999977  -3.91000009  53.61999893
C     8.64999962  -3.88999987  53.31999969
C     8.21000004  -3.33999991  52.09000015
C     9.10000038  -2.76999998  51.20999908
C    10.48999977  -2.73000002  51.50000000
C    14.68000031  -2.63999987  52.31999969
C    15.26999950  -1.88999999  51.26999664
C    16.57999992  -1.43000007  51.24000168
C     6.76999998  -3.61999989  51.72999954
H     6.47190285  -3.26512241  50.74343872
H    11.05999947  -1.77999997  49.66999817
H    12.63000011  -4.02999973  53.76999664
H    10.29999924  -4.48000002  54.48999786
H     7.97999954  -4.44999981  53.95999908
H     8.85999966  -2.53999996  50.17000198
H    16.98999977  -0.85000002  50.40999985
H     6.67999983  -4.69999981  51.91999817
H     6.11000013  -3.19999981  52.50000000
S    17.97999954  -2.91000009  54.65999985
C    20.62000084  -2.23000002  54.15000153
C    19.30999947  -2.16999984  53.74000168
C    18.85000038  -1.65000010  52.49000168
C    19.85000038  -1.25999999  51.62000275
C    21.21000099  -1.19000006  52.00000000
C    22.18000031  -0.63000000  51.12999725
C    23.50000000  -0.59000003  51.52000046
C    23.90999985  -1.07000005  52.78999710
C    22.98000145  -1.59999990  53.63999939
C    21.61000061  -1.71000004  53.27999878
C    17.40999985  -1.77999997  52.30999756
C    16.84000015  -2.56999993  53.34000015
C    15.53999996  -3.07000017  53.34000015
C    25.31999969  -0.63000000  53.13999939
H    25.83784485  -1.33937836  53.78553772
H    20.84000015  -2.68000007  55.12000275
H    19.55999947  -0.79999995  50.68000031
H    21.77000046  -0.14000000  50.24000168
H    24.10000038   0.11000000  50.93999863
H    23.23999786  -1.79000008  54.68000031
H    15.11000061  -3.65000010  54.15000153
H    25.23999977   0.34000003  53.63999939
H    25.82999992  -0.55000001  52.16999817
