96

S    17.65999985   2.17999983  57.63999939
C    20.43000031   2.22000003  57.01000214
C    19.12999916   1.89999998  56.69000244
C    18.73999977   1.38999999  55.40999985
C    19.73999977   1.12000000  54.48999786
C    21.09999847   1.36999989  54.78000259
C    22.15999985   1.26999998  53.82999802
C    23.43000031   1.70000005  54.10999680
C    23.75999832   2.09000015  55.44000244
C    22.80999947   2.13000011  56.43000031
C    21.45000076   1.94999993  56.05999756
C    17.29999924   1.31999993  55.20999908
C    16.55999947   1.84000003  56.30000305
C    15.17000008   1.84000003  56.37000275
C    25.22000122   2.44000006  55.61999893
H    25.81055069   1.81387401  56.28881836
H    20.62999916   2.75000000  57.93000031
H    19.56999969   0.81000000  53.46000290
H    21.96000099   0.92000002  52.81999969
H    24.13999939   1.59999990  53.29999924
H    23.13999939   2.42000008  57.43000031
H    14.60000038   1.97000003  57.29000092
H    25.66999817   2.25000000  54.64000320
H    25.43000031   3.51000023  55.75000000
S    14.07999992   0.39999998  52.87000275
C    11.35000038   0.39000002  53.66000366
C    12.64999962   0.82000005  53.83999634
C    13.00000000   1.38000000  55.11000061
C    12.02000046   1.63000000  56.04999924
C    10.67000008   1.28000009  55.84999847
C     9.67000008   1.33000004  56.86000061
C     8.38999939   0.97000003  56.51000214
C     8.02999973   0.50999999  55.20999908
C     9.00000000   0.32999998  54.26000214
C    10.31999969   0.76999998  54.54999924
C    14.45000076   1.47000003  55.21999741
C    15.19999981   0.94999999  54.13000107
C    16.59000015   0.85000002  54.09999847
C     6.61000013   0.06000000  54.95999908
H     6.03239775   0.78735065  54.38953018
H    11.17000008  -0.28000000  52.81999969
H    12.41000080   1.77999997  57.04999924
H     9.98999977   1.44999993  57.88999939
H     7.67000008   1.11000001  57.30999756
H     8.73999977  -0.24000001  53.36999893
H    17.05999947   0.46000001  53.20999908
H     6.06999969   0.02000000  55.91999817
H     6.58999968  -0.92000002  54.45999908
S    14.19000053  -1.67999995  49.91000366
C    11.56000042  -2.04999995  50.65000153
C    12.89000034  -2.26999998  50.96000290
C    13.36999989  -2.94000006  52.12999725
C    12.42000008  -3.47000003  52.98999786
C    11.03999996  -3.30999994  52.71999741
C    10.07999992  -3.91000009  53.59000397
C     8.73999977  -3.68999982  53.37999725
C     8.30999947  -2.86999989  52.29999924
C     9.22000027  -2.29999995  51.43000031
C    10.60999966  -2.54999995  51.56999969
C    14.80999947  -2.75999999  52.22000122
C    15.39999962  -2.02999997  51.16000366
C    16.72000122  -1.59999990  51.16000366
C     6.80999994  -2.72000027  52.15999985
H     6.42518759  -3.17607379  51.24785233
H    11.30000019  -1.65000010  49.66999817
H    12.71000004  -3.98999977  53.89999771
H    10.32999992  -4.67999983  54.29999924
H     7.96999979  -4.23999977  53.92000198
H     8.88000011  -1.72000003  50.58000183
H    17.15999985  -1.25999999  50.21999741
H     6.24000025  -3.17000008  52.98999786
H     6.63000011  -1.65000010  52.04999924
S    18.20000076  -3.00000000  54.52999878
C    20.85000038  -2.52999997  53.88000107
C    19.52999878  -2.30999994  53.56999969
C    19.02000046  -1.69000006  52.38999939
C    19.98999977  -1.24000001  51.52000046
C    21.37000084  -1.38000000  51.79999924
C    22.36000061  -0.90999997  50.87999725
C    23.68999863  -1.02999997  51.19999695
C    24.13999939  -1.63000000  52.41000366
C    23.22000122  -2.21000004  53.26000214
C    21.84000015  -1.99000001  53.01000214
C    17.57999992  -1.86000001  52.22999954
C    17.00000000  -2.61999989  53.27999878
C    15.69000053  -3.07000017  53.27000046
C    25.61000061  -1.87999988  52.63000107
H    25.89557838  -1.80860531  53.67950058
H    21.11999893  -2.98000002  54.82999802
H    19.68000031  -0.82999998  50.56000137
H    22.06000137  -0.27000001  50.05000305
H    24.40000153  -0.62000000  50.50000000
H    23.54999924  -2.75000000  54.15000153
H    15.31000042  -3.60000014  54.13999939
H    26.18999863  -1.14999998  52.04999924
H    25.86000061  -2.84000015  52.15999985
