96

S    17.71999931   2.03999996  57.81000137
C    20.45000076   2.32999992  57.12999725
C    19.15999985   2.00999999  56.77999878
C    18.81000137   1.48000002  55.50000000
C    19.75000000   1.33000004  54.50000000
C    21.09000015   1.66999996  54.80999756
C    22.15999985   1.65000010  53.87000275
C    23.46999931   1.89999998  54.20999908
C    23.81999969   2.38000011  55.50000000
C    22.75000000   2.69000006  56.31000137
C    21.42000008   2.21000004  56.10000229
C    17.36999893   1.38999999  55.27999878
C    16.62999916   1.65999997  56.45999908
C    15.25000000   1.76999998  56.51000214
C    25.25000000   2.70000005  55.84000015
H    25.55660248   2.24366212  56.78119659
H    20.73999786   2.75999999  58.09000015
H    19.63000107   0.93000001  53.50000000
H    22.00000000   1.31999993  52.84000015
H    24.18000031   1.80999994  53.40000153
H    22.86999893   3.07999992  57.30999756
H    14.70000076   2.07999992  57.39999771
H    25.95000076   2.57999992  54.99000168
H    25.30999947   3.77999997  56.04000092
S    14.14000034   0.39000002  53.00000000
C    11.46000004   0.37000000  53.59000397
C    12.69999981   0.81000000  53.95999908
C    13.03999996   1.48000002  55.18000031
C    12.05000019   1.61000001  56.12999725
C    10.72000027   1.22000003  55.83000183
C     9.63999939   1.46000004  56.72999954
C     8.34999943   1.13000000  56.38000107
C     8.09000015   0.52999997  55.12000275
C     9.11000061   0.28000000  54.23999786
C    10.44999981   0.64000005  54.54000092
C    14.48999977   1.54999995  55.35999680
C    15.21000004   1.03999996  54.25000000
C    16.60000038   1.02999997  54.16999817
C     6.72999954  -0.02000000  54.73999786
H     6.14430094   0.62284064  54.08287430
H    11.26000023  -0.20999999  52.69000244
H    12.20999908   1.94000006  57.15999985
H     9.85999966   1.88999999  57.70000076
H     7.51999950   1.35000002  57.04999924
H     8.89999962  -0.32999998  53.36000061
H    16.97999954   0.64000005  53.22999954
H     6.25000000  -0.11000000  55.72999954
H     6.76999998  -1.00000000  54.25000000
S    18.15999985   2.61999989  51.65999985
C    20.76999855   2.94999981  50.76000214
C    19.51000023   2.46000004  50.52999878
C    19.17000008   1.75000000  49.33000183
C    20.15000153   1.54999995  48.37999725
C    21.47999954   1.92000008  48.67000198
C    22.56999969   1.75000000  47.76000214
C    23.88000107   2.00000000  48.09999847
C    24.27999878   2.54999995  49.34000015
C    23.21000099   2.86999989  50.13999939
C    21.84000015   2.59000015  49.88999939
C    17.72999954   1.50000000  49.33000183
C    17.02000046   1.99000001  50.45999908
C    15.64000034   2.13000011  50.63000107
C    25.63999939   3.08999991  49.68999863
H    26.03021431   2.50112820  50.52009583
H    20.89999962   3.51999998  51.68000031
H    19.92000008   1.14999998  47.38999939
H    22.22999954   1.30999994  46.81999969
H    24.61000061   1.80000007  47.31999969
H    23.38000107   3.52999973  50.98999786
H    15.11999989   2.66999984  51.40999603
H    26.19999886   2.93000007  48.75999832
H    25.50000000   4.15999985  49.87999725
S    14.47999954   1.08000004  46.98999786
C    11.82999992   0.82999998  47.74000168
C    13.09999943   1.23000002  48.09000015
C    13.45000076   1.61000001  49.43000031
C    12.44999981   1.72000003  50.38000107
C    11.10000038   1.52999997  50.00999832
C     9.98999977   1.65999997  50.89000320
C     8.69999981   1.36999989  50.52999878
C     8.38999939   0.81000000  49.26000214
C     9.44000053   0.75000000  48.37999725
C    10.80999947   0.96000004  48.72000122
C    14.89999962   1.63000000  49.54999924
C    15.57000065   1.14999998  48.40000153
C    16.95000076   1.05999994  48.26000214
C     7.00000000   0.39000002  48.87000275
H     6.51465368   1.19653177  48.32041550
H    11.47999954   0.57999998  46.73999786
H    12.58999920   1.88999999  51.44000244
H    10.19999981   2.00999999  51.90000153
H     7.90000010   1.53999996  51.24000168
H     9.34000015   0.41000003  47.35000229
H    17.56000137   0.75999999  47.41000366
H     6.35999966   0.19000000  49.75000000
H     6.94999981  -0.50000000  48.22000122
