96

S    17.53999901   1.72999990  57.57999802
C    20.15999985   1.94000006  56.88000107
C    18.93000031   1.43000007  56.52000046
C    18.54999924   1.03999996  55.20000076
C    19.55000114   1.04999995  54.25000000
C    20.82999992   1.57000005  54.55999756
C    21.87000084   1.43000007  53.60000229
C    23.16999817   1.70000005  53.96999741
C    23.46999931   2.25000000  55.24000168
C    22.47999954   2.47000003  56.17000198
C    21.18000031   1.94999993  55.90000153
C    17.10000038   0.87000000  55.10000229
C    16.42000008   1.25000000  56.27999878
C    15.03999901   1.36000013  56.43000031
C    24.87999916   2.73000002  55.47999954
H    25.37593651   2.14196253  56.25224304
H    20.31999969   2.38000011  57.85999680
H    19.45999908   0.54000002  53.29999924
H    21.51000023   0.90000004  52.71999741
H    24.04999924   1.47000003  53.36999893
H    22.67999840   2.99000001  57.11000061
H    14.70000076   1.82999992  57.35000229
H    25.42000008   2.80999994  54.52999878
H    24.70999908   3.75999975  55.79999924
S    13.78999901   0.44000000  52.77999878
C    11.16000080   0.14999999  53.68000031
C    12.46000099   0.50999999  53.95999908
C    12.76999950   0.99000001  55.27000046
C    11.76000023   1.03999996  56.20999908
C    10.42000008   0.68000007  55.93000031
C     9.39999962   0.68000007  56.91999817
C     8.09000015   0.43000001  56.55000305
C     7.76999998  -0.14999999  55.28999710
C     8.75000000  -0.14999999  54.33000183
C    10.10000038   0.19999999  54.61000061
C    14.22000027   1.11000001  55.31999969
C    14.89999962   0.83999997  54.10999680
C    16.28000069   0.69000000  53.99000168
C     6.32000017  -0.41000003  54.94999695
H     5.91296387   0.26839340  54.20019531
H    10.85999966  -0.11000000  52.67000198
H    12.02000046   1.36000013  57.22000122
H     9.73999977   0.92000002  57.91999817
H     7.23999977   0.67000002  57.18000031
H     8.40999985  -0.32000002  53.30999756
H    16.55999947   0.28999999  53.02000046
H     5.65999985  -0.48000002  55.81999969
H     6.28999996  -1.46000004  54.61000061
S    17.88999939   2.53999996  51.72999954
C    20.55000114   2.91000009  50.94999695
C    19.30999947   2.38000011  50.68000031
C    18.95000076   1.75000000  49.43999863
C    19.93999863   1.63000000  48.48999786
C    21.24000168   2.15000010  48.69999695
C    22.34000015   1.75999999  47.88000107
C    23.64000130   1.87999988  48.33000183
C    23.92999840   2.66000009  49.47999954
C    22.89999962   3.17999983  50.21999741
C    21.55999947   2.76999998  49.95999908
C    17.52000046   1.49000001  49.29999924
C    16.80999947   1.94000006  50.45000076
C    15.43000031   1.93000007  50.50000000
C    25.38999939   2.96999979  49.75000000
H    25.70308876   2.40074563  50.62522888
H    20.72999954   3.40999985  51.88999939
H    19.69000053   1.12000000  47.56999969
H    22.04999924   1.33000004  46.93000031
H    24.44000053   1.46000004  47.72999573
H    23.09000015   3.91999984  51.00000000
H    14.88000011   2.23000002  51.38999939
H    25.96999931   2.61999989  48.88999939
H    25.22000122   4.02999973  49.94999695
S    14.30999947   0.64000005  46.90999985
C    11.64000034   0.78000003  47.41000366
C    12.89000034   1.13000000  47.85999680
C    13.25000000   1.61000001  49.15999985
C    12.22000027   1.80999994  50.05000305
C    10.92000008   1.38999999  49.66999817
C     9.85000038   1.44999993  50.59999847
C     8.56999969   1.00999999  50.34999847
C     8.36000061   0.39000002  49.09000015
C     9.32999992   0.28000000  48.11000061
C    10.59999943   0.83999997  48.37999725
C    14.70000076   1.65000010  49.34000015
C    15.39999962   1.16999996  48.20999908
C    16.77999878   0.99000001  48.22000122
C     7.03000021  -0.23000000  48.74000168
H     6.47484779   0.38920856  48.03538513
H    11.46000004   0.39000002  46.40999603
H    12.38999939   2.17999983  51.05999756
H    10.11999989   1.86000001  51.56999969
H     7.76000023   1.08999991  51.05999756
H     9.13999939  -0.23000000  47.15999985
H    17.30999947   0.56000000  47.37999725
H     6.51999998  -0.39999998  49.68999863
H     7.34000015  -1.21000004  48.34999847
