96

S    17.82999992   1.84000003  57.68000031
C    20.46999931   2.33999991  56.97000122
C    19.23999977   1.86000001  56.59000015
C    18.89000130   1.41000009  55.27999878
C    19.88000107   1.50000000  54.31000137
C    21.18000031   1.93000007  54.66999817
C    22.29000092   1.87000012  53.79000092
C    23.61000061   1.97000003  54.18000031
C    23.90999985   2.39999986  55.48999786
C    22.86999893   2.61999989  56.37000275
C    21.52000046   2.34999990  56.00999832
C    17.46000099   1.25000000  55.12000275
C    16.73999977   1.50999999  56.31999969
C    15.36999893   1.75999999  56.35000229
C    25.32999992   2.75000000  55.87999725
H    25.78665924   2.07928133  56.60780334
H    20.59999847   2.59000015  58.02000046
H    19.79999924   0.99000001  53.36000061
H    22.13999939   1.46000004  52.78999710
H    24.40000153   1.76999998  53.46000290
H    22.95999908   2.96000004  57.39999771
H    14.80999947   2.00999999  57.23999786
H    26.04999924   2.66999984  55.05000305
H    25.26000023   3.78999996  56.22000122
S    14.23999977   0.57999998  52.71999741
C    11.56000042   0.32000002  53.48999786
C    12.84999943   0.67000002  53.81999969
C    13.17999935   1.18000007  55.11000061
C    12.13000107   1.33000004  56.00999832
C    10.77999973   1.02999997  55.72999954
C     9.68000031   1.10000002  56.63000107
C     8.43000031   0.59000003  56.35000229
C     8.19999981   0.00000000  55.07999802
C     9.19999981  -0.01000000  54.13000107
C    10.51000023   0.43000001  54.43999863
C    14.60999966   1.39999998  55.22999573
C    15.31000042   1.08999991  54.03999710
C    16.69999886   1.00000000  53.96999741
C     6.76000023  -0.38000000  54.81999969
H     6.36214113   0.18126535  53.97454834
H    11.39999962  -0.14999999  52.52999878
H    12.25999928   1.75000000  57.00000000
H     9.94999981   1.56000006  57.56999969
H     7.73000002   0.79000002  57.15000153
H     9.07999992  -0.52999997  53.18999863
H    17.19000053   0.88999999  53.01000214
H     6.14000034  -0.23000000  55.70999908
H     6.72999954  -1.47000003  54.68000031
S    17.79999924   2.86000013  51.56999969
C    20.51000214   3.00000000  50.93999863
C    19.23999977   2.63000011  50.56000137
C    18.97999954   2.05999994  49.27000046
C    20.00000000   1.90999997  48.34999847
C    21.32999802   2.17999983  48.75999832
C    22.49000168   1.94999993  47.95999908
C    23.75000000   2.43000007  48.23999786
C    24.01000023   3.05999994  49.48999786
C    22.92000008   3.17999983  50.31999969
C    21.59000015   2.75999999  50.05000305
C    17.54999924   1.87000012  49.08000183
C    16.80999947   2.25999999  50.21999741
C    15.43000031   2.36000013  50.26000214
C    25.40999985   3.54999995  49.75999832
H    25.79373169   3.22311759  50.72643280
H    20.73999786   3.40999985  51.91999817
H    19.88999939   1.65999997  47.29999924
H    22.34000015   1.48000002  46.98999786
H    24.54000092   2.40999985  47.50000000
H    23.00000000   3.75000000  51.25000000
H    14.85000038   2.86999989  51.03000259
H    26.04999924   3.32999992  48.88999939
H    25.36000061   4.63999987  49.79000092
S    14.34999943   0.90000004  46.72999954
C    11.57999992   0.83999997  47.43000031
C    12.90999985   1.00000000  47.76000214
C    13.31999969   1.43999994  49.06000137
C    12.31999969   1.75000000  49.97000122
C    10.97000027   1.36999989  49.73999786
C     9.89999962   1.39999998  50.66999817
C     8.55000019   1.24000001  50.41999817
C     8.26000023   0.56999999  49.20000076
C     9.23999977   0.46999997  48.25000000
C    10.59999943   0.82999998  48.44999695
C    14.72000027   1.77999997  49.20000076
C    15.44000053   1.36999989  48.04999924
C    16.82999992   1.31999993  48.01000214
C     6.84999990   0.14999999  48.82999802
H     6.41724157   0.80977947  48.07799149
H    11.39000034   0.50000000  46.42000198
H    12.63000011   2.23000002  50.89000320
H    10.22999954   1.80999994  51.60999680
H     7.79999971   1.41000009  51.18000031
H     8.90999985   0.16000001  47.25999832
H    17.34000015   0.86000001  47.16999817
H     6.17999983   0.28999999  49.68000031
H     6.84999990  -0.90000004  48.52000427
