96

S    17.61000061   1.88999999  57.77000046
C    20.29000092   1.53999996  57.21000290
C    18.98999977   1.28000009  56.84000015
C    18.61999893   0.76999998  55.56000137
C    19.63000107   0.48000002  54.65999985
C    20.93000031   1.00000000  54.91000366
C    21.91999817   1.00000000  53.88999939
C    23.15999985   1.56000006  54.09999847
C    23.47999954   2.10999990  55.37000275
C    22.59000015   2.05999994  56.42000198
C    21.28000069   1.56000006  56.18999863
C    17.18000031   0.82999998  55.31999969
C    16.53000069   1.38000000  56.45999908
C    15.17000008   1.62000000  56.43000031
C    24.94999886   2.37000012  55.59000015
H    25.31175232   1.63940024  56.31350327
H    20.43000031   1.94000006  58.20999908
H    19.30999947   0.09999999  53.69999695
H    21.67000008   0.75999999  52.85999680
H    23.85999870   1.48000002  53.27000046
H    22.79000092   2.49000001  57.38999939
H    14.63999939   1.93000007  57.32999802
H    25.43000031   2.29999995  54.59999847
H    25.22000122   3.33999991  56.02000427
S    14.04999924   0.46000001  52.76000214
C    11.42000008   0.16000001  53.59000397
C    12.68000031   0.62000000  53.88000107
C    13.01000023   1.13999999  55.17000198
C    11.97999954   1.34000003  56.07999802
C    10.65000057   0.93999994  55.77999878
C     9.59000015   1.15999997  56.70000076
C     8.32999992   0.69000000  56.38999939
C     8.07999992   0.01000000  55.17000198
C     9.02999973  -0.07000000  54.18000031
C    10.34999943   0.37000000  54.48999786
C    14.45000076   1.26999998  55.27999878
C    15.14000034   0.83999997  54.12000275
C    16.48999977   0.51999998  54.15000153
C     6.71999979  -0.59999996  54.93999863
H     6.17332602  -0.18111971  54.09513855
H    11.19999981  -0.25999999  52.61000061
H    12.17000008   1.81999993  57.02999878
H     9.89000034   1.49000001  57.69000244
H     7.53000021   0.76999998  57.12999725
H     8.76999950  -0.51999998  53.22999954
H    16.90999985   0.17000002  53.20999908
H     6.26999950  -0.50000000  55.93000031
H     6.84999990  -1.66999996  54.71000290
S    13.75000000  -1.75999999  50.19000244
C    11.10999966  -2.25999999  50.97999954
C    12.46000099  -2.45000005  51.18999863
C    13.04999924  -3.12999988  52.29999924
C    12.17000008  -3.73000002  53.18999863
C    10.77999973  -3.51999998  53.01000214
C     9.85000038  -4.21000004  53.82999802
C     8.48999977  -4.23000002  53.60000229
C     7.94000053  -3.42000008  52.56999969
C     8.78000069  -2.66999984  51.77999878
C    10.19000053  -2.73999977  51.95000076
C    14.50000000  -3.02999997  52.32999802
C    15.06000042  -2.46000004  51.16000366
C    16.42000008  -2.19000006  51.11000061
C     6.51000023  -3.77999997  52.23999786
H     6.13300562  -3.37455320  51.30106735
H    10.72999954  -1.67999995  50.14999771
H    12.51000023  -4.38000011  53.99000168
H    10.26999950  -4.76000023  54.66999817
H     7.92999983  -4.94000006  54.20000076
H     8.48999977  -2.14000010  50.87999725
H    16.82999992  -1.51999998  50.35999680
H     6.44000006  -4.86000013  52.43999863
H     5.97000027  -3.28000021  53.04999924
S    17.84000015  -3.42999983  54.66999817
C    20.48000145  -2.79000020  53.88000107
C    19.11999893  -2.79000020  53.61999893
C    18.61999893  -2.24000001  52.39999771
C    19.47999954  -1.54999995  51.56999969
C    20.88000107  -1.58999991  51.81000137
C    21.84999847  -0.90999997  51.02000427
C    23.21000099  -1.00999999  51.18000031
C    23.67000198  -1.81999993  52.25000000
C    22.80999947  -2.38999987  53.16999817
C    21.40999985  -2.22000003  52.97999954
C    17.22999954  -2.59999990  52.16999817
C    16.69000053  -3.15000010  53.36000061
C    15.31999969  -3.42999983  53.39000320
C    25.15999985  -2.03999996  52.37999725
H    25.55652237  -1.82049668  53.37130356
H    20.92000008  -3.33999991  54.71000290
H    19.22000122  -0.93000001  50.70999908
H    21.42999840  -0.41000003  50.14999771
H    23.87000084  -0.55000001  50.45000076
H    23.05999947  -2.86999989  54.10999680
H    14.88000011  -3.77999997  54.31000137
H    25.65999985  -1.47000003  51.58000183
H    25.31999969  -3.09999990  52.16999817
