96

S    16.97999954   1.86000001  57.57999802
C    19.69000053   1.72999990  56.91999817
C    18.38999939   1.38999999  56.62000275
C    17.98999977   0.73000002  55.40999985
C    19.00000000   0.50000000  54.48999786
C    20.30999947   1.00000000  54.65000153
C    21.35999870   0.79000002  53.69999695
C    22.65999985   1.15999997  53.92000198
C    22.95000076   1.88999999  55.10000229
C    21.97999954   2.11999989  56.04999924
C    20.62999916   1.71000004  55.86000061
C    16.54999924   0.71000004  55.22999573
C    15.85999966   1.34000003  56.30000305
C    14.50000000   1.62000000  56.24000168
C    24.38999939   2.29999995  55.30000305
H    24.90984535   1.58788443  55.94090271
H    19.96000099   2.22000003  57.84999847
H    18.75000000   0.12000000  53.50000000
H    21.11999893   0.41000003  52.70999908
H    23.45999908   0.93999994  53.22000122
H    22.13999939   2.66999984  56.97000122
H    13.96999931   1.93000007  57.14000320
H    24.93999863   2.40999985  54.36000061
H    24.47999954   3.30000019  55.75000000
S    13.38000107  -0.08000001  52.76000214
C    10.75000000  -0.20999999  53.54000092
C    11.98999977   0.34000003  53.77999878
C    12.35000038   0.97999996  55.00000000
C    11.32999992   1.41000009  55.83000183
C    10.01000023   0.97000003  55.58000183
C     8.97000027   1.28999996  56.50000000
C     7.71000004   0.76999998  56.31999969
C     7.37999964  -0.01000000  55.18000031
C     8.36999989  -0.25000000  54.25000000
C     9.72999954   0.09999999  54.47000122
C    13.78999901   1.13000000  55.13999939
C    14.45000076   0.50000000  54.05000305
C    15.82999992   0.32000002  54.09999847
C     5.95000029  -0.31000000  54.79000092
H     5.62289476   0.35843259  53.99357224
H    10.60999966  -0.74000001  52.60000229
H    11.54000092   1.97000003  56.73999786
H     9.35000038   1.85000002  57.35000229
H     6.94000006   1.11000001  57.01000214
H     8.06999969  -0.75000000  53.33000183
H    16.28000069  -0.02000000  53.16999817
H     5.33999968  -0.19000000  55.68999863
H     5.96000004  -1.31999993  54.36000061
S    13.94999981  -2.00999999  49.98000336
C    11.30000019  -2.47000003  50.65999985
C    12.63000011  -2.70000005  50.93000031
C    13.12000084  -3.28999996  52.14000320
C    12.18000031  -3.65000010  53.09000015
C    10.80999947  -3.63999987  52.76000214
C     9.81000042  -4.23000002  53.59000397
C     8.47000027  -4.17000008  53.27999878
C     8.03999996  -3.40999985  52.15999985
C     8.94999981  -2.79999995  51.32999802
C    10.34000015  -2.98000002  51.56999969
C    14.55999947  -3.10999990  52.30999756
C    15.14000034  -2.36000013  51.25000000
C    16.45000076  -1.90999997  51.25000000
C     6.56000042  -3.17000008  51.97000122
H     6.21851349  -3.58974385  51.02379608
H    11.00999928  -1.90999997  49.77000427
H    12.35000038  -4.09000015  54.06999969
H    10.17000008  -4.86999989  54.38999939
H     7.78999996  -4.84000015  53.81000137
H     8.60000038  -2.17999983  50.51000214
H    16.86000061  -1.48000002  50.34000015
H     5.88000011  -3.51999998  52.76000214
H     6.54999971  -2.07999992  51.93000031
S    17.94999886  -3.52999973  54.59999847
C    20.56999969  -3.00999999  53.87000275
C    19.23999977  -2.86999989  53.56999969
C    18.75000000  -2.34999990  52.32999802
C    19.64999962  -1.87000012  51.39999771
C    21.02999878  -1.80999994  51.70000076
C    21.97999954  -1.22000003  50.81999969
C    23.31999969  -1.28999996  51.13999939
C    23.77000046  -2.03999996  52.25000000
C    22.86000061  -2.57999992  53.11999893
C    21.45000076  -2.39999986  52.95000076
C    17.29999924  -2.34999990  52.27000427
C    16.75000000  -3.03999996  53.37999725
C    15.42000008  -3.45000005  53.36000061
C    25.23999977  -2.29999995  52.50999832
H    25.59703827  -1.95724094  53.48115158
H    20.88999939  -3.48000002  54.79999924
H    19.34000015  -1.53999996  50.40999985
H    21.64999962  -0.71999997  49.91000366
H    24.09000015  -0.85000002  50.51000214
H    23.15999985  -3.12000012  54.01000214
H    15.06999969  -4.03999996  54.20000076
H    25.88999939  -1.89999998  51.72000122
H    25.29999924  -3.38999987  52.57999802
