96

S    17.31999969   2.00999999  57.50999832
C    20.10000038   2.00999999  56.88999939
C    18.78999901   1.77999997  56.53999710
C    18.43000031   1.25999999  55.26000214
C    19.47999954   1.01999998  54.40000153
C    20.84000015   1.25000000  54.68999863
C    21.90999985   0.99000001  53.79000092
C    23.22000122   1.25999999  54.10999680
C    23.54999924   1.79000008  55.38000107
C    22.53999901   1.98000002  56.29000092
C    21.17000198   1.80999994  55.97000122
C    16.98999977   1.19000006  55.06000137
C    16.21999931   1.64000010  56.17000198
C    14.84000015   1.74000001  56.26999664
C    24.92000198   2.33999991  55.70999908
H    25.56542587   1.69457459  56.30577850
H    20.36999893   2.32999992  57.90000153
H    19.22999954   0.78000003  53.36999893
H    21.63000107   0.62000000  52.80000305
H    23.95000076   1.00000000  53.34000015
H    22.70999908   2.47000003  57.25000000
H    14.30999947   2.07999992  57.15999985
H    25.36000061   2.64999986  54.75000000
H    24.84999847   3.30000019  56.23000336
S    13.81000042   0.43000001  52.65999603
C    11.11999989   0.08000001  53.46000290
C    12.41000080   0.48000002  53.74000168
C    12.71999931   1.08999991  55.00000000
C    11.69000053   1.34000003  55.87999725
C    10.34000015   0.97000003  55.63000107
C     9.26000023   1.19999993  56.52000046
C     7.97999954   0.79999995  56.24000168
C     7.71000004   0.08000001  55.04000092
C     8.73999977  -0.14999999  54.15000153
C    10.07999992   0.27000001  54.38999939
C    14.15999985   1.29999995  55.13999939
C    14.88999939   0.93000001  53.97999573
C    16.27000046   0.75000000  53.94000244
C     6.32000017  -0.32999998  54.62999725
H     5.79634380   0.45548469  54.08511353
H    10.93999958  -0.41999999  52.50999832
H    11.87999916   1.72999990  56.86999893
H     9.52000046   1.72999990  57.43999863
H     7.16000032   1.00999999  56.91999817
H     8.56999969  -0.82000005  53.30999756
H    16.77999878   0.31000000  53.09000015
H     5.68000031  -0.69000000  55.44000244
H     6.39999962  -1.13000000  53.88000107
S    18.05999947   2.40999985  51.53999710
C    20.76999855   2.33999991  50.84000015
C    19.45999908   2.04999995  50.51000214
C    19.12999916   1.46000004  49.25000000
C    20.13999939   1.23000002  48.34000015
C    21.47000122   1.65000010  48.60000229
C    22.56999969   1.44999993  47.71999741
C    23.85999870   1.80999994  48.04999924
C    24.11999893   2.39999986  49.31999969
C    23.09999847   2.66000009  50.20999908
C    21.80999947   2.16000009  49.89999771
C    17.68000031   1.34000003  49.10999680
C    16.98999977   1.85000002  50.24000168
C    15.62000084   2.03999996  50.33000183
C    25.51000214   2.87999988  49.66999817
H    25.89558792   2.38730359  50.56256485
H    20.94000053   2.89999986  51.76000214
H    19.95000076   0.90999997  47.31999969
H    22.32000160   1.10000002  46.72000122
H    24.61999893   1.79000008  47.28000259
H    23.21000099   3.10999990  51.19999695
H    15.17000008   2.45000005  51.24000168
H    26.14999962   2.52999997  48.86000061
H    25.53999901   3.97000027  49.77000427
S    14.37000084   0.73000002  46.77999878
C    11.68000031   0.90000004  47.45999908
C    12.98999977   1.14999998  47.81000137
C    13.38999939   1.72000003  49.06000137
C    12.39999962   1.99000001  50.00000000
C    11.09000015   1.51999998  49.79999924
C    10.11000061   1.74000001  50.80999756
C     8.78000069   1.50999999  50.54000092
C     8.39999962   0.88000000  49.31999969
C     9.34000015   0.75000000  48.33000183
C    10.72000027   1.03999996  48.48999786
C    14.84000015   1.72999990  49.20999908
C    15.48999977   1.23000002  48.06000137
C    16.87000084   1.10000002  48.00000000
C     7.02000046   0.34000003  49.00000000
H     6.49326086   0.95927489  48.27395248
H    11.33999920   0.39999998  46.56000137
H    12.64999962   2.34999990  50.98999786
H    10.40999985   2.11999989  51.77999878
H     8.06999969   1.59999990  51.36000061
H     9.04999924   0.29999998  47.37999725
H    17.35000038   0.79000002  47.08000183
H     6.48999977   0.57999998  49.93000031
H     6.98999977  -0.75999999  48.97999573
