96

S    17.56000137   2.28999996  57.64999771
C    20.28000069   2.46000004  57.01000214
C    19.01000023   2.06999993  56.65999985
C    18.68999863   1.47000003  55.40000153
C    19.70999908   1.35000002  54.47000122
C    21.02999878   1.77999997  54.72999954
C    22.07999992   1.66999996  53.77999878
C    23.36999893   2.01999998  54.12000275
C    23.68000031   2.56000018  55.38999939
C    22.63999939   2.75999999  56.26999664
C    21.30000114   2.36000013  56.02000427
C    17.26000023   1.23000002  55.28999710
C    16.47999954   1.70000005  56.37000275
C    15.08999920   1.72000003  56.39999771
C    25.10999870   2.84999990  55.79000092
H    25.56417465   2.06938553  56.40029907
H    20.36000061   2.98000002  57.95999908
H    19.59000015   0.83999997  53.52000427
H    21.73999977   1.35000002  52.80000305
H    24.23999977   1.94999993  53.47000122
H    22.86999893   2.96000004  57.31999969
H    14.56999969   1.93000007  57.32999802
H    25.61000061   3.07000017  54.84000397
H    25.27000046   3.81999993  56.26999664
S    14.09000015   0.41999999  52.81000137
C    11.31000042   0.25000000  53.47000122
C    12.61999989   0.56999999  53.79000092
C    12.96000004   1.13000000  55.06000137
C    11.96000004   1.34000003  55.98999786
C    10.60999966   0.97999996  55.72000122
C     9.52000046   1.35000002  56.55000305
C     8.23000050   1.01999998  56.20999908
C     7.96000004   0.34999999  54.99000168
C     8.96000004   0.08000001  54.09000015
C    10.31000042   0.37000000  54.45999908
C    14.37999916   1.35000002  55.25000000
C    15.14999962   0.90999997  54.13999939
C    16.54000092   0.76999998  54.18000031
C     6.58999968  -0.17999999  54.64000320
H     6.06204367   0.50491601  53.97648621
H    11.17000008  -0.03000000  52.43000031
H    12.27000046   1.76999998  56.93999863
H     9.75000000   1.94999993  57.43000031
H     7.37999964   1.25000000  56.86000061
H     8.82000065  -0.34999999  53.09999847
H    16.95999908   0.31000000  53.29999924
H     5.97000027  -0.51999998  55.48999786
H     6.74000025  -1.14999998  54.15000153
S    17.76000023   2.47000003  51.68000031
C    20.45999908   2.76999998  50.91999817
C    19.19000053   2.30999994  50.63999939
C    18.79999924   1.84000003  49.34999847
C    19.79999924   1.69000006  48.40999985
C    21.11999893   2.15000010  48.66000366
C    22.13000107   2.03999996  47.67000198
C    23.45000076   2.31999993  47.90000153
C    23.74000168   3.01999998  49.10999680
C    22.79000092   3.25000000  50.06999969
C    21.47000122   2.73999977  49.93000031
C    17.35999870   1.71000004  49.16999817
C    16.65999985   2.06999993  50.34999847
C    15.27999973   2.27999997  50.34999847
C    25.13999939   3.51000023  49.41999817
H    25.66184044   2.87378335  50.13484955
H    20.65000153   3.24000001  51.88000107
H    19.51000023   1.33000004  47.43000031
H    21.91999817   1.70000005  46.65999985
H    24.15999985   2.13000011  47.09000015
H    23.08000183   3.82999992  50.93999863
H    14.75000000   2.63999987  51.22000122
H    25.72000122   3.54999995  48.48999786
H    25.02000046   4.53000021  49.79000092
S    14.21000004   0.78000003  46.77999878
C    11.54000092   0.71999997  47.43000031
C    12.77999973   1.21000004  47.75000000
C    13.09000015   1.71000004  49.06000137
C    12.09000015   1.86000001  50.00000000
C    10.77999973   1.39999998  49.73999786
C     9.70000076   1.66999996  50.63000107
C     8.42000008   1.38000000  50.21999741
C     8.18000031   0.71000004  48.99000168
C     9.22000027   0.39999998  48.15000153
C    10.54999924   0.81000000  48.43999863
C    14.52999973   1.85000002  49.23999786
C    15.22999954   1.36999989  48.11000061
C    16.61000061   1.28000009  48.06999969
C     6.80999994   0.14000000  48.68999863
H     6.35416985   0.74539977  47.90653992
H    11.31000042   0.08000001  46.58000183
H    12.32999992   2.16000009  51.02000427
H     9.85000038   2.07999992  51.63000107
H     7.67000008   1.50000000  50.98999786
H     9.07999992  -0.06000000  47.18000031
H    17.11000061   0.85000002  47.19999695
H     6.12999964   0.17999999  49.54999924
H     6.89000034  -0.88999999  48.33000183
