96

S    17.59000015   1.90999997  57.68000031
C    20.35000038   1.86000001  57.06999969
C    19.04999924   1.53999996  56.73999786
C    18.76000023   1.02999997  55.43000031
C    19.79999924   0.73000002  54.56999969
C    21.14000130   1.05999994  54.87999725
C    22.19000053   0.88999999  53.93000031
C    23.46999931   1.22000003  54.29000092
C    23.71999931   1.87000012  55.52999878
C    22.70999908   2.19000006  56.39999771
C    21.42000008   1.62000000  56.17000198
C    17.32999992   0.93000001  55.17000198
C    16.61000061   1.43999994  56.27999878
C    15.21999931   1.58000004  56.30000305
C    25.13000107   2.23000002  55.94999695
H    25.57118225   1.50418615  56.63311768
H    20.62000084   2.37000012  57.98999786
H    19.64999962   0.28000000  53.59000397
H    22.06000137   0.44000000  52.94000244
H    24.23000145   1.02999997  53.54000092
H    22.84000015   2.86999989  57.22999954
H    14.68000031   1.77999997  57.22000122
H    25.72999954   2.29999995  55.04000092
H    25.10999870   3.19000006  56.47999573
S    14.07999992  -0.11000000  52.90000153
C    11.31000042   0.03000000  53.54999924
C    12.61999989   0.38000000  53.79000092
C    13.05999947   1.07000005  54.97000122
C    12.05000019   1.38999999  55.84999847
C    10.71000004   0.93999994  55.76000214
C     9.70000076   1.08999991  56.75000000
C     8.43000031   0.59999996  56.63000107
C     8.10999966  -0.01000000  55.38999939
C     8.98999977  -0.13000000  54.34000015
C    10.31999969   0.32000002  54.52000046
C    14.50000000   1.14999998  55.17000198
C    15.19999981   0.46000001  54.15000153
C    16.59000015   0.34000003  54.15000153
C     6.67000008  -0.45000002  55.20000076
H     6.05742502   0.18394342  54.55893326
H    11.07999992  -0.55000001  52.65999603
H    12.34000015   1.80000007  56.81999969
H     9.98999977   1.54999995  57.70000076
H     7.73000002   0.61000001  57.47000122
H     8.71999931  -0.71000004  53.44999695
H    17.05000114  -0.17999999  53.30999756
H     6.11000013  -0.52999997  56.13999939
H     6.71999979  -1.47000003  54.79000092
S    17.71999931   1.82999992  51.84000015
C    20.45000076   1.67999995  51.12999725
C    19.12999916   1.36999989  50.87999725
C    18.77000046   0.93999994  49.55999756
C    19.70999908   0.79999995  48.55999756
C    21.07999992   1.01999998  48.82999802
C    22.04999924   1.05999994  47.78999710
C    23.34000015   1.43999994  48.06000137
C    23.68000031   1.98000002  49.33000183
C    22.75000000   2.03999996  50.34000015
C    21.45000076   1.51999998  50.13000107
C    17.32999992   1.04999995  49.36000061
C    16.61000061   1.48000002  50.50000000
C    15.22999954   1.65000010  50.56000137
C    25.06999969   2.53999996  49.58000183
H    25.57052422   1.94652081  50.34508896
H    20.69999886   2.24000001  52.02999878
H    19.37000084   0.51999998  47.56000137
H    21.80999947   0.75000000  46.77000046
H    24.03000069   1.43999994  47.22000122
H    23.12000084   2.59999990  51.18999863
H    14.68999958   2.10999990  51.38000107
H    25.66999817   2.45000005  48.66000366
H    24.96999931   3.58000016  49.88999939
S    14.04000092   0.64000005  46.91999817
C    11.36999989   0.32000002  47.78999710
C    12.64999962   0.79000002  48.00000000
C    13.02999973   1.28999996  49.29000092
C    12.05000019   1.53999996  50.22999573
C    10.73999977   1.10000002  49.97000122
C     9.71000004   1.46000004  50.89000320
C     8.40999985   1.08000004  50.65000153
C     8.01999950   0.37000000  49.47999954
C     9.00000000   0.04000000  48.56999969
C    10.36000061   0.37000000  48.79000092
C    14.47999954   1.33000004  49.41999817
C    15.17000008   0.90999997  48.26000214
C    16.55999947   0.76999998  48.22999954
C     6.58999968  -0.05000000  49.22999954
H     6.21290064   0.49074614  48.36196136
H    11.00999928  -0.02000000  46.81999969
H    12.31999969   1.90999997  51.22000122
H    10.11000061   2.02999997  51.72000122
H     7.72000027   1.36999989  51.44000244
H     8.71999931  -0.23000000  47.55000305
H    17.01000023   0.48000002  47.28000259
H     6.01000023   0.07000000  50.15999603
H     6.65999985  -1.13000000  49.06999969
