96

S    17.63000107   1.36999989  57.80000305
C    20.29000092   1.66999996  57.02999878
C    19.02000046   1.25000000  56.70999908
C    18.67000008   0.79000002  55.40000153
C    19.75000000   0.62000000  54.55999756
C    21.04999924   1.13000000  54.79999924
C    22.14999962   0.93999994  53.90999603
C    23.47999954   1.14999998  54.20999908
C    23.75000000   1.67999995  55.50000000
C    22.73999977   1.89999998  56.39999771
C    21.37000084   1.65000010  56.10000229
C    17.22999954   0.67000002  55.22999573
C    16.56999969   1.14999998  56.38999939
C    15.18000031   1.21000004  56.40999603
C    25.13000107   2.19000006  55.86000061
H    25.50873184   1.66834974  56.73894501
H    20.48000145   1.95999992  58.06000137
H    19.48999977   0.17000002  53.61000061
H    21.87000084   0.63000000  52.90999985
H    24.33000183   1.11000001  53.54000092
H    22.81999969   2.31999993  57.39999771
H    14.65999985   1.44999993  57.32999802
H    25.81999969   1.98000002  55.04000092
H    25.03999901   3.25000000  56.12999725
S    14.06999969  -0.04000000  52.78999710
C    11.39999962  -0.00000000  53.43999863
C    12.67000008   0.38000000  53.80000305
C    13.02000046   0.90000004  55.08999634
C    12.02000046   0.97000003  56.04000092
C    10.67999935   0.67000002  55.68999863
C     9.63000011   0.74000001  56.65000153
C     8.31999969   0.48999998  56.35000229
C     8.05000019  -0.14000000  55.10000229
C     9.01000023  -0.19999999  54.12000275
C    10.36000061   0.17000002  54.38000107
C    14.47000027   0.90999997  55.24000168
C    15.17000008   0.43000001  54.10999680
C    16.54000092   0.19999999  54.10999680
C     6.65999985  -0.69000000  54.86000061
H     6.01969814  -0.10661399  54.19835663
H    11.18999958  -0.31000000  52.42000198
H    12.20999908   1.00000000  57.11000061
H     9.89999962   1.18000007  57.62000275
H     7.55999994   0.68000007  57.09999847
H     8.71999931  -0.71999997  53.20999908
H    17.05999947  -0.04000000  53.18999863
H     6.09000015  -0.87000000  55.77999878
H     6.81999969  -1.67999995  54.40999985
S    14.00000000  -1.95999992  49.93999863
C    11.35000038  -2.46000004  50.79000092
C    12.71000004  -2.66999984  50.93000031
C    13.26000023  -3.33999991  52.06999969
C    12.35999966  -3.86999989  52.97000122
C    10.97000027  -3.60000014  52.90999985
C    10.06000042  -4.23999977  53.79000092
C     8.71000004  -4.19999981  53.54000092
C     8.19000053  -3.53999996  52.38999939
C     9.02999973  -2.82999992  51.55000305
C    10.43000031  -2.89999986  51.77000046
C    14.70000076  -3.19999981  52.16999817
C    15.26000023  -2.50999975  51.05999756
C    16.53000069  -1.97000003  51.17000198
C     6.71000004  -3.65999985  52.12999725
H     6.29719305  -3.31124973  51.18339157
H    11.02000046  -1.88999999  49.93000031
H    12.71999931  -4.53999996  53.75000000
H    10.50000000  -4.82999992  54.58000183
H     8.11999989  -4.85000038  54.18000031
H     8.59000015  -2.33999991  50.68999863
H    16.79000092  -1.23000002  50.41999817
H     6.47000027  -4.72000027  52.28000259
H     6.12999964  -3.24000001  52.95999908
S    18.05999947  -3.70000005  54.45000076
C    20.63999939  -2.99000001  53.74000168
C    19.29000092  -2.87999988  53.47000122
C    18.79999924  -2.16000009  52.34000397
C    19.69000053  -1.54999995  51.46999741
C    21.07999992  -1.74000001  51.65999985
C    22.03000069  -1.08999991  50.83000183
C    23.36000061  -1.10000002  51.18000031
C    23.84000015  -1.77999997  52.32999802
C    22.95000076  -2.40999985  53.16999817
C    21.56999969  -2.44000006  52.83000183
C    17.35999870  -2.36000013  52.22000122
C    16.84999847  -3.19999981  53.25000000
C    15.52999973  -3.61000013  53.22999954
C    25.31999969  -1.89999998  52.56999969
H    25.51997185  -1.87857437  53.64128494
H    21.00000000  -3.53999996  54.61000061
H    19.42000008  -0.93999994  50.61000061
H    21.63000107  -0.43000001  50.06000137
H    24.03000069  -0.56999999  50.52000046
H    23.22999954  -2.94000006  54.08000183
H    15.06000042  -4.15999985  54.03999710
H    25.94000053  -1.14999998  52.04999924
H    25.63999939  -2.84999990  52.12999725
