96

S    17.34000015   1.57000005  57.83000183
C    19.95000076   1.81999993  57.00000000
C    18.68000031   1.39999998  56.68000031
C    18.30999947   1.03999996  55.34999847
C    19.26000023   0.99000001  54.34000015
C    20.59000015   1.34000003  54.65000153
C    21.65999985   1.11000001  53.73000336
C    22.96999931   1.36999989  54.06999969
C    23.26999855   1.88999999  55.35999680
C    22.27000046   2.16000009  56.26999664
C    20.92000008   1.82999992  55.96000290
C    16.86000061   0.97000003  55.22999573
C    16.23999977   1.29999995  56.45999908
C    14.85999966   1.46000004  56.46999741
C    24.71999931   2.21000004  55.65999985
H    25.13296318   1.54071307  56.41473007
H    20.28000069   2.16000009  57.97999954
H    19.11999893   0.46000001  53.40000153
H    21.38000107   0.88000000  52.70999908
H    23.67000198   1.36000013  53.23999786
H    22.46999931   2.53999996  57.27000427
H    14.46000004   1.80000007  57.42000198
H    25.23999977   2.06999993  54.69999695
H    24.79000092   3.25000000  55.97000122
S    13.67000008  -0.04000000  52.95999908
C    10.95999908  -0.14999999  53.63999939
C    12.25000000   0.14000000  54.01000214
C    12.64000034   0.73000002  55.26000214
C    11.59999943   0.90999997  56.14999771
C    10.26999950   0.51999998  55.89000320
C     9.19000053   0.64000005  56.81000137
C     7.92000008   0.28999999  56.43000031
C     7.55999994  -0.28000000  55.18000031
C     8.59000015  -0.38000000  54.27000046
C     9.94000053  -0.06000000  54.61000061
C    14.06999969   0.94999999  55.43000031
C    14.73000050   0.56999999  54.23999786
C    16.10999870   0.56000000  54.12000275
C     6.11000013  -0.61000001  54.87999725
H     5.76086235  -0.07560575  53.99646759
H    10.72999954  -0.57999998  52.65999603
H    11.57999992   1.19000006  57.19999695
H     9.44000053   1.11000001  57.76000214
H     7.07999992   0.52999997  57.06999969
H     8.30000019  -0.64000005  53.25000000
H    16.64999962   0.13000000  53.27999878
H     5.46000004  -0.39999998  55.73999786
H     6.01999998  -1.67999995  54.66999817
S    13.94999981  -2.10999990  50.10000229
C    11.23999977  -2.59000015  50.77000046
C    12.57999992  -2.73999977  51.04000092
C    13.02999973  -3.28999996  52.28000259
C    12.10000038  -3.86000013  53.13999939
C    10.72000027  -3.68999982  52.91999817
C     9.76000023  -4.26000023  53.81000137
C     8.40999985  -4.15999985  53.56999969
C     7.96000004  -3.68000007  52.30999756
C     8.86999989  -3.07000017  51.46999741
C    10.27999973  -3.10999990  51.68000031
C    14.44000053  -3.09999990  52.56000137
C    15.03000069  -2.39999986  51.46999741
C    16.38000107  -2.06999993  51.44000244
C     6.56000042  -3.94000006  51.83000183
H     6.15445042  -3.33523273  51.01890182
H    10.85999966  -1.99000001  49.94999695
H    12.43000031  -4.28999996  54.08000183
H    10.07999992  -4.75000000  54.72999954
H     7.69000006  -4.48999977  54.29999924
H     8.64000034  -2.76999998  50.45000076
H    16.87000084  -1.76999998  50.52000046
H     6.60000038  -5.01999950  51.60999680
H     5.95000029  -3.88999987  52.74000168
S    17.79000092  -3.35999990  54.88999939
C    20.46999931  -2.93000007  54.15000153
C    19.12999916  -2.82000017  53.87000275
C    18.64999962  -2.24000001  52.64999771
C    19.54000092  -1.77999997  51.70000076
C    20.94000053  -1.89999998  51.90000153
C    21.91999817  -1.30999994  51.04999924
C    23.28000069  -1.36000013  51.26999664
C    23.68999863  -2.05999994  52.43999863
C    22.77000046  -2.50000000  53.36999893
C    21.37000084  -2.45000005  53.15999985
C    17.20000076  -2.34999990  52.54000092
C    16.57999992  -3.00000000  53.63999939
C    15.24000072  -3.37000012  53.68000031
C    25.17000008  -2.36000013  52.56000137
H    25.61615372  -1.90676439  53.44522858
H    20.86999893  -3.28000021  55.10000229
H    19.17000008  -1.44999993  50.72999954
H    21.52000046  -0.75999999  50.20999908
H    23.95000076  -1.05999994  50.47000122
H    23.15999985  -3.07999992  54.20000076
H    14.89999962  -3.93000007  54.54000092
H    25.72999954  -2.07999992  51.65999985
H    25.38000107  -3.42999983  52.65999603
