96

S    17.82999992   2.19000006  57.70999908
C    20.51000214   2.02999997  57.09999847
C    19.22000122   1.94000006  56.63999939
C    18.86999893   1.49000001  55.31999969
C    19.93999863   1.22000003  54.48999786
C    21.27000046   1.38000000  54.94999695
C    22.37999916   1.08999991  54.09999847
C    23.65999985   1.49000001  54.41999817
C    23.92000008   2.19000006  55.61999893
C    22.92000008   2.39999986  56.55000305
C    21.63000107   1.87000012  56.25000000
C    17.42000008   1.35000002  55.24000168
C    16.72000122   1.82999992  56.37000275
C    15.32999992   1.90999997  56.37000275
C    25.32999992   2.53999996  56.02000427
H    25.63549423   1.96453547  56.89385605
H    20.62999916   2.64999986  57.98999786
H    19.79999924   0.81000000  53.50000000
H    22.17000008   0.62000000  53.13999939
H    24.43000031   1.28000009  53.68999863
H    23.09999847   2.94999981  57.47000122
H    14.88999939   2.31999993  57.28000259
H    25.97999954   2.38999987  55.13999939
H    25.48000145   3.60000014  56.24000168
S    14.26000023  -0.00000000  53.04999924
C    11.51999950   0.12000000  53.59000397
C    12.81000042   0.46999997  53.95000076
C    13.15000057   1.15999997  55.15999603
C    12.10000038   1.43000007  56.03000259
C    10.76000023   1.14999998  55.68000031
C     9.64999962   1.36000013  56.53999710
C     8.36000061   1.00000000  56.24000168
C     8.05000019   0.50999999  54.94999695
C     9.10000038   0.22000000  54.09999847
C    10.46000004   0.41999999  54.47999954
C    14.57999992   1.36999989  55.31999969
C    15.29999924   0.78000003  54.25000000
C    16.69000053   0.74000001  54.20999908
C     6.67999983  -0.05000000  54.65000153
H     6.13275766   0.49724239  53.88243866
H    11.33999920  -0.43000001  52.68000031
H    12.36999989   1.85000002  56.98999786
H     9.92000008   1.77999997  57.50999832
H     7.57999992   0.97000003  57.01000214
H     8.86999989  -0.14999999  53.11000061
H    17.22999954   0.17000002  53.46000290
H     6.05000019  -0.09000000  55.54000092
H     6.88000011  -1.10000002  54.40999985
S    14.37999916  -1.64000010  49.97000122
C    11.73999977  -2.29999995  50.65000153
C    13.09000015  -2.43000007  50.90000153
C    13.60999966  -3.12999988  52.02999878
C    12.69000053  -3.42000008  53.02000046
C    11.28000069  -3.31999993  52.90000153
C    10.27999973  -3.72000003  53.82999802
C     8.93999958  -3.63000011  53.54000092
C     8.53999996  -3.03999996  52.30999756
C     9.46000004  -2.63999987  51.36000061
C    10.84000015  -2.76999998  51.65000153
C    15.06000042  -2.99000001  52.16999817
C    15.59999943  -2.23000002  51.11000061
C    16.88999939  -1.72999990  51.19999695
C     7.07999992  -2.73999977  52.06999969
H     6.53897858  -3.23830938  51.26558685
H    11.36000061  -1.93000007  49.69999695
H    13.10999966  -3.67000008  53.99000168
H    10.71000004  -4.07999992  54.77000427
H     8.22000027  -3.96000004  54.27000046
H     9.13000011  -2.16999984  50.44000244
H    17.28999901  -1.15999997  50.35999680
H     6.60000038  -2.87999988  53.04999924
H     7.13999987  -1.65000010  51.91999817
S    18.27999878  -2.92000008  54.75000000
C    20.92000008  -2.53999996  53.94000244
C    19.59000015  -2.28999996  53.73000336
C    19.11999893  -1.74000001  52.49000168
C    20.06999969  -1.38000000  51.55000305
C    21.45999908  -1.39999998  51.79999924
C    22.50999832  -0.92000002  50.96000290
C    23.81999969  -1.22000003  51.22000122
C    24.18999863  -1.94999993  52.36999893
C    23.22999954  -2.42000008  53.22999954
C    21.87999916  -2.01999998  53.02999878
C    17.69000053  -1.98000002  52.31999969
C    17.13999939  -2.68000007  53.41999817
C    15.84000015  -3.16000009  53.31999969
C    25.66999817  -2.17999983  52.57999802
H    26.01148605  -1.83139932  53.55466080
H    21.19999886  -3.26999998  54.69999695
H    19.73999977  -1.08999991  50.56000137
H    22.15999985  -0.24000001  50.18000031
H    24.51000023  -0.82999998  50.47000122
H    23.44000053  -3.05999994  54.09000015
H    15.38000011  -3.58000016  54.22000122
H    26.21000099  -1.58999991  51.83000183
H    25.96999931  -3.23000002  52.50999832
