96

S    17.35000038   1.88999999  57.50999832
C    20.05000114   1.71000004  56.86999893
C    18.75000000   1.47000003  56.50000000
C    18.38999939   0.85000002  55.27000046
C    19.42000008   0.45000002  54.43999863
C    20.73999786   0.87000000  54.72000122
C    21.81999969   0.56000000  53.83999634
C    23.11000061   0.94999999  54.12000275
C    23.45999908   1.79000008  55.20999908
C    22.44999886   1.98000002  56.11999893
C    21.09999847   1.56000006  55.93000031
C    16.94000053   0.76999998  55.17000198
C    16.21999931   1.30999994  56.26999664
C    14.85000038   1.52999997  56.25000000
C    24.87999916   2.17999983  55.54000092
H    25.35012627   1.41070223  56.15258789
H    20.28000069   2.04999995  57.88000107
H    19.09000015  -0.14000000  53.59000397
H    21.61999893   0.19000000  52.83000183
H    23.84000015   0.69999999  53.36000061
H    22.72000122   2.43000007  57.06999969
H    14.30999947   1.93000007  57.11000061
H    25.40999985   2.26999998  54.59000015
H    24.84999847   3.19999981  55.93999863
S    13.76999950   0.16000001  52.67000198
C    11.05000019   0.34000003  53.37999725
C    12.36999989   0.55000001  53.68999863
C    12.67000008   1.08000004  54.98000336
C    11.67000008   1.36000013  55.89000320
C    10.32999992   0.97999996  55.63999939
C     9.30000019   1.11000001  56.62000275
C     8.01999950   0.88000000  56.19999695
C     7.65999985   0.29999998  54.94999695
C     8.67000008   0.07000000  54.03999710
C    10.01999950   0.41999999  54.34999847
C    14.11999893   1.10000002  55.13000107
C    14.84000015   0.56000000  54.03999710
C    16.21000099   0.32000002  54.06000137
C     6.25999975  -0.17000002  54.65999985
H     5.81880045   0.37794167  53.82741165
H    10.85999966  -0.14000000  52.42000198
H    12.02000046   1.75999999  56.84000015
H     9.47000027   1.39999998  57.65999603
H     7.16000032   0.94999999  56.84999847
H     8.34999943  -0.23000000  53.04999924
H    16.72999954   0.19000000  53.11999893
H     5.60999966  -0.20999999  55.54000092
H     6.30000019  -1.22000003  54.34999847
S    13.96000004  -1.80000007  50.02999878
C    11.26999950  -2.25999999  50.54000092
C    12.56999969  -2.38000011  50.97000122
C    13.02000046  -3.07000017  52.15000153
C    12.05000019  -3.65000010  52.94000244
C    10.69000053  -3.35000014  52.70999908
C     9.59000015  -3.78999996  53.50000000
C     8.27000046  -3.51999998  53.22000122
C     7.95000029  -2.79999995  52.04000092
C     8.94999981  -2.49000001  51.13999939
C    10.31000042  -2.73999977  51.45999908
C    14.47000027  -3.01999998  52.31999969
C    15.13000011  -2.31999993  51.26999664
C    16.47999954  -1.99000001  51.31000137
C     6.48999977  -2.63999987  51.68000031
H     6.12601995  -2.93261123  50.69511414
H    11.09000015  -1.58999991  49.68999863
H    12.28000069  -4.46000004  53.61999893
H     9.84000015  -4.42999983  54.34000015
H     7.51999950  -4.01999998  53.82999802
H     8.75000000  -1.89999998  50.25000000
H    16.87000084  -1.50000000  50.41999817
H     5.88000011  -3.17999983  52.42000198
H     6.32999992  -1.56000006  51.81000137
S    17.71000099  -3.86000013  54.58000183
C    20.43999863  -3.32999992  53.96999741
C    19.09000015  -3.14000010  53.74000168
C    18.68999863  -2.33999991  52.62000275
C    19.63000107  -1.79000008  51.76000214
C    21.00000000  -2.11999989  51.91999817
C    21.98999786  -1.57000005  51.06999969
C    23.32999992  -1.79000008  51.26999664
C    23.72999954  -2.59000015  52.36999893
C    22.81999969  -3.17999983  53.20999908
C    21.42999840  -2.87999988  53.06999969
C    17.25000000  -2.38000011  52.41000366
C    16.59000015  -3.17000008  53.39000320
C    15.22999954  -3.45000005  53.40999985
C    25.22000122  -2.84000015  52.45999908
H    25.61893082  -2.34133863  53.34334183
H    20.76000023  -3.97000027  54.78000259
H    19.32999992  -1.16999996  50.91999817
H    21.55999947  -0.96000004  50.27000046
H    24.06999969  -1.46000004  50.54000092
H    23.08000183  -3.91000009  53.96999741
H    14.65999985  -3.91000009  54.20999908
H    25.75000000  -2.63000011  51.52999878
H    25.19000053  -3.93000007  52.56999969
