96

S    17.54999924   2.19000006  57.85999680
C    20.20000076   2.21000004  57.02000046
C    18.88000107   1.94999993  56.72000122
C    18.51000023   1.29999995  55.48999786
C    19.48999977   0.99000001  54.56999969
C    20.84000015   1.34000003  54.79999924
C    21.87999916   1.23000002  53.81999969
C    23.15000153   1.67999995  54.09999847
C    23.47999954   2.19000006  55.38000107
C    22.53000069   2.33999991  56.37000275
C    21.21000099   1.90999997  56.05999756
C    17.05999947   1.19000006  55.47000122
C    16.39000130   1.63000000  56.63000107
C    15.00000000   1.74000001  56.63999939
C    24.92000198   2.51999998  55.70000076
H    25.37653351   1.99926662  56.54173279
H    20.51000214   2.82000017  57.85999680
H    19.23999977   0.56999999  53.59000397
H    21.61000061   0.63000000  52.95999908
H    23.90000153   1.38999999  53.36999893
H    22.65000153   2.75999999  57.36000061
H    14.55000019   1.95999992  57.60000229
H    25.42000008   2.28999996  54.75000000
H    24.93000031   3.60000014  55.90999985
S    13.96000004   0.46000001  53.02000046
C    11.23999977   0.32999998  53.64999771
C    12.51999950   0.68000007  54.02999878
C    12.79999924   1.22000003  55.33000183
C    11.72999954   1.43999994  56.18000031
C    10.39999962   1.31999993  55.72000122
C     9.35000038   1.53999996  56.65000153
C     8.09000015   1.04999995  56.38000107
C     7.76999998   0.41000003  55.14999771
C     8.80999947   0.14999999  54.29999924
C    10.13000011   0.64999998  54.47000122
C    14.23999977   1.34000003  55.54000092
C    14.96999931   0.96000004  54.38999939
C    16.35000038   0.82999998  54.31000137
C     6.38999987  -0.14999999  54.91000366
H     5.90094328   0.32488096  54.05946732
H    11.09000015  -0.38000000  52.84999847
H    11.82000065   1.75999999  57.22000122
H     9.64999962   1.89999998  57.63000107
H     7.40999985   1.12000000  57.22999954
H     8.78999996  -0.55000001  53.47000122
H    16.80999947   0.59999996  53.36000061
H     5.84000015  -0.27000001  55.84999847
H     6.61000013  -1.19999993  54.68000031
S    18.15000153   2.33999991  51.83000183
C    20.81999969   2.63000011  51.18000031
C    19.55999947   2.25999999  50.77000046
C    19.27000046   1.93000007  49.40000153
C    20.30999947   1.86000001  48.48999786
C    21.61999893   2.09999990  48.96999741
C    22.69000053   2.15000010  48.02999878
C    23.94000053   2.61000013  48.39000320
C    24.25000000   2.84000015  49.75999832
C    23.25000000   2.86000013  50.70000076
C    21.93000031   2.52999997  50.30000305
C    17.84000015   1.72999990  49.26000214
C    17.10000038   2.02999997  50.43000031
C    15.72000027   2.13000011  50.40000153
C    25.63999939   3.33999991  50.08999634
H    26.13720703   2.67942572  50.80029678
H    20.95999908   3.07999992  52.15999985
H    20.20999908   1.65999997  47.43000031
H    22.53000069   1.79000008  47.02000046
H    24.64999962   2.73000002  47.58999634
H    23.51000023   3.02999997  51.75000000
H    15.21000004   2.17999983  51.36000061
H    26.12999916   3.35000014  49.10999680
H    25.61000061   4.38000011  50.44000244
S    14.57999992   1.12000000  46.77000046
C    11.90000057   0.97999996  47.50999832
C    13.19000053   1.33000004  47.84999847
C    13.53999996   1.81999993  49.15000153
C    12.55000019   1.99000001  50.08999634
C    11.21000099   1.61000001  49.79999924
C    10.26999950   1.57000005  50.86999893
C     8.97999954   1.13000000  50.65000153
C     8.57999992   0.81000000  49.33000183
C     9.48999977   0.87000000  48.29999924
C    10.88000107   1.11000001  48.48999786
C    14.98999977   1.94000006  49.22000122
C    15.71000004   1.43000007  48.09999847
C    17.09000015   1.26999998  48.15999985
C     7.18999958   0.25000000  49.09999847
H     6.64233732   0.63407505  48.23938751
H    11.51000023   0.69999999  46.53999710
H    12.92000008   2.28999996  51.05999756
H    10.67999935   1.99000001  51.77999878
H     8.27000046   1.29999995  51.45000076
H     9.22000027   0.48000002  47.31999969
H    17.71999931   0.88999999  47.36999893
H     6.53999996   0.50000000  49.94999695
H     7.23000002  -0.83999997  49.01000214
