96

S    17.63000107   1.84000003  57.57999802
C    20.29999924   1.89999998  56.86999893
C    19.01000023   1.62000000  56.47999573
C    18.63999939   1.12000000  55.19000244
C    19.68000031   0.99000001  54.29000092
C    21.02999878   1.24000001  54.64000320
C    22.11000061   0.96000004  53.75999832
C    23.42000008   1.13000000  54.10999680
C    23.68999863   1.62000000  55.41999817
C    22.72000122   1.92000008  56.35000229
C    21.37000084   1.69000006  55.97000122
C    17.19000053   1.07000005  55.06000137
C    16.52000046   1.49000001  56.24000168
C    15.14000034   1.51999998  56.30000305
C    25.03000069   2.25000000  55.70000076
H    25.49445343   1.66407490  56.49314499
H    20.46999931   2.20000005  57.90000153
H    19.45999908   0.56000000  53.30999756
H    21.78999901   0.78000003  52.74000168
H    24.20999908   0.87000000  53.40999985
H    23.08000183   2.40999985  57.25999832
H    14.60999966   1.77999997  57.22000122
H    25.69000053   2.25000000  54.81999969
H    24.89999962   3.30999994  55.94999695
S    13.96999931   0.41000003  52.67000198
C    11.28999901   0.48000002  53.36000061
C    12.58999920   0.78000003  53.70999908
C    12.94000053   1.13999999  55.05000305
C    11.97999954   1.30999994  56.03000259
C    10.62999916   1.07000005  55.68999863
C     9.61999989   1.15999997  56.69000244
C     8.30999947   0.96000004  56.32999802
C     8.00000000   0.45000002  55.05000305
C     8.94999981   0.25000000  54.08000183
C    10.29000092   0.65999997  54.34999847
C    14.39000034   1.25000000  55.14999771
C    15.07999992   0.76999998  54.01000214
C    16.46000099   0.55000001  53.99000168
C     6.61999989  -0.13000000  54.79999924
H     6.00064516   0.53206885  54.19488525
H    10.98000050   0.07000000  52.41000366
H    12.36999989   1.43000007  57.04000092
H     9.85999966   1.43999994  57.70999908
H     7.59000015   1.08000004  57.14000320
H     8.67999935  -0.32999998  53.20000076
H    16.94000053   0.20999999  53.08000183
H     6.19000006  -0.19000000  55.80999756
H     6.63999987  -1.08999991  54.27999878
S    17.60000038   2.46000004  51.68000031
C    20.36000061   2.49000001  50.98999786
C    19.04999924   2.19000006  50.68999863
C    18.71000099   1.65999997  49.40000153
C    19.71999931   1.42000008  48.48999786
C    21.05999947   1.80000007  48.72000122
C    22.13000107   1.80999994  47.77999878
C    23.42000008   2.14000010  48.13000107
C    23.71999931   2.63999987  49.41999817
C    22.70000076   2.73000002  50.34000015
C    21.37000084   2.34999990  50.00999832
C    17.27000046   1.54999995  49.22999954
C    16.53000069   2.09000015  50.31000137
C    15.18000031   2.38999987  50.26000214
C    25.10000038   3.03999996  49.88999939
H    25.54027367   2.25177097  50.50069809
H    20.62999916   2.86000013  51.97999954
H    19.51000023   1.02999997  47.49000168
H    21.97000122   1.36999989  46.79999924
H    24.21999931   1.88999999  47.43000031
H    22.86999893   3.14000010  51.33999634
H    14.75999928   2.64999986  51.22000122
H    25.69000053   3.19000006  48.96999741
H    25.09000015   4.00999975  50.40000153
S    14.01999950   0.93999994  46.76000214
C    11.33999920   0.69000000  47.60000229
C    12.63000011   1.08999991  47.85999680
C    13.00000000   1.72999990  49.08000183
C    12.01000023   1.82999992  50.04000092
C    10.65999985   1.43000007  49.85000229
C     9.61999989   1.66999996  50.79000092
C     8.31999969   1.29999995  50.52999878
C     8.01000023   0.62000000  49.33000183
C     9.01000023   0.32000002  48.43000031
C    10.34999943   0.76999998  48.61000061
C    14.44000053   1.92000008  49.15999985
C    15.14999962   1.36999989  48.06000137
C    16.52000046   1.15999997  48.11000061
C     6.54999971   0.34000003  49.06000137
H     6.18879700   0.63746107  48.07554626
H    11.23000050   0.22000000  46.62000275
H    12.25999928   2.11999989  51.04999924
H     9.92000008   2.22000003  51.68000031
H     7.57000017   1.49000001  51.27999878
H     8.82000065   0.00000000  47.41000366
H    17.06999969   0.79999995  47.23999786
H     5.93999958   0.87000000  49.79999924
H     6.43000031  -0.74000001  49.18000031
