96

S    17.92000008   1.69000006  57.84000015
C    20.65000153   1.74000001  57.15000153
C    19.34999847   1.48000002  56.79999924
C    19.00000000   1.05999994  55.47999954
C    20.00999832   0.82999998  54.56999969
C    21.37000084   1.00999999  54.93000031
C    22.40999985   0.76999998  53.99000168
C    23.69999886   1.08999991  54.33000183
C    23.97999954   1.65000010  55.61000061
C    23.05999947   1.69000006  56.63000107
C    21.70999908   1.41000009  56.26999664
C    17.57999992   0.75000000  55.40999985
C    16.82999992   1.08000004  56.56999969
C    15.44999981   1.25000000  56.53999710
C    25.38999939   2.10999990  55.90999985
H    25.82945251   1.41538143  56.62588120
H    20.98999977   2.20000005  58.08000183
H    19.78999901   0.48999998  53.55999756
H    22.14999962   0.28999999  53.04000092
H    24.46000099   1.04999995  53.55999756
H    23.22000122   1.99000001  57.65999603
H    15.01000023   1.64000010  57.44999695
H    26.02999878   2.20000005  55.01999664
H    25.20999908   3.08999991  56.36000061
S    14.35999966  -0.07000000  53.02999878
C    11.61999893  -0.08000001  53.55999756
C    12.88000011   0.39000002  53.88000107
C    13.22999954   0.94999999  55.14999771
C    12.17000008   1.19999993  56.00999832
C    10.84000015   0.83999997  55.70999908
C     9.81000042   1.01999998  56.68000031
C     8.52000046   0.65999997  56.40999603
C     8.19000053  -0.03000000  55.20999908
C     9.22000027  -0.27000001  54.31999969
C    10.54999924   0.20999999  54.45000076
C    14.65999985   0.97999996  55.41999817
C    15.44000053   0.50000000  54.31999969
C    16.81999969   0.38000000  54.29999924
C     6.77999973  -0.46000001  54.86999893
H     6.22549677   0.28644684  54.30127716
H    11.42000008  -0.64000005  52.65999603
H    12.34000015   1.59999990  57.01000214
H    10.00000000   1.52999997  57.62000275
H     7.76000023   1.07000005  57.08000183
H     8.90999985  -0.74000001  53.39000320
H    17.31999969   0.06000000  53.37999725
H     6.34999990  -0.64999998  55.86000061
H     6.86999989  -1.41000009  54.33000183
S    13.99000072  -1.81999993  50.12000275
C    11.36999989  -2.38999987  50.87999725
C    12.71000004  -2.53999996  51.11000061
C    13.21000004  -3.35999990  52.18000031
C    12.30000019  -3.88000011  53.06999969
C    10.90999985  -3.71000004  52.83000183
C     9.92999935  -4.23999977  53.72000122
C     8.56999969  -4.17000008  53.54000092
C     8.09000015  -3.35000014  52.48000336
C     8.98999977  -2.86999989  51.55000305
C    10.39999962  -3.07000017  51.65999985
C    14.65000057  -3.21000004  52.32999802
C    15.19000053  -2.44000006  51.26999664
C    16.54000092  -2.10999990  51.26999664
C     6.61999989  -3.16000009  52.21000290
H     6.32210493  -3.53591490  51.23120499
H    11.06999969  -1.70000005  50.08999634
H    12.64000034  -4.30000019  54.01000214
H    10.25000000  -4.90000010  54.52999878
H     7.88000011  -4.63999987  54.22000122
H     8.71999931  -2.31999993  50.65999985
H    16.93000031  -1.61000001  50.38999939
H     6.05999994  -3.71000004  52.97999954
H     6.35999966  -2.09999990  52.21000290
S    17.80999947  -3.55999994  54.80999756
C    20.46999931  -3.17999983  54.12000275
C    19.14999962  -2.96000004  53.81000137
C    18.77000046  -2.45000005  52.51999664
C    19.79999924  -1.99000001  51.72000122
C    21.18000031  -2.22000003  51.97999954
C    22.21999931  -1.70000005  51.17000198
C    23.54999924  -1.80999994  51.50000000
C    23.90000153  -2.50000000  52.69000244
C    22.90999985  -3.05999994  53.46000290
C    21.52000046  -2.86999989  53.20999908
C    17.32999992  -2.49000001  52.36000061
C    16.75000000  -3.23000002  53.41999817
C    15.43000031  -3.68000007  53.39000320
C    25.36000061  -2.69000006  53.02999878
H    25.92188644  -1.79382586  53.29316330
H    20.69999886  -3.53999996  55.12000275
H    19.50000000  -1.39999998  50.86000061
H    21.97999954  -1.24000001  50.21999741
H    24.27999878  -1.51999998  50.75000000
H    23.18000031  -3.55999994  54.38000107
H    15.06000042  -4.30999994  54.20000076
H    25.82999992  -3.17999983  52.15999985
H    25.48000145  -3.35999990  53.88999939
