96

S    17.53000069   2.13000011  57.52999878
C    20.20999908   2.43000007  56.63999939
C    18.89999962   2.06999993  56.40999603
C    18.56999969   1.46000004  55.15999603
C    19.56999969   1.25000000  54.22999954
C    20.94000053   1.50999999  54.50000000
C    21.98999786   1.43999994  53.54999924
C    23.29000092   1.80999994  53.81999969
C    23.61000061   2.31999993  55.11000061
C    22.60999870   2.57999992  56.00999832
C    21.28000069   2.15000010  55.75000000
C    17.13000107   1.21000004  55.05000305
C    16.46000099   1.50999999  56.25999832
C    15.06999969   1.56000006  56.25999832
C    25.05000114   2.61999989  55.47999954
H    25.43967247   1.98235404  56.27351379
H    20.43000031   2.94999981  57.56000137
H    19.30999947   0.85000002  53.26000214
H    21.81999969   0.97000003  52.57999802
H    24.10000038   1.72000003  53.11000061
H    22.95999908   3.10999990  56.88999939
H    14.59000015   1.99000001  57.14000320
H    25.69999886   2.56999993  54.59999847
H    25.13000107   3.61000013  55.94999695
S    13.85000038   0.39000002  52.76000214
C    11.18000031   0.03000000  53.54000092
C    12.46000099   0.39000002  53.87000275
C    12.81000042   0.90999997  55.15999603
C    11.77999973   1.18000007  56.04000092
C    10.44000053   0.86000001  55.72999954
C     9.44000053   1.03999996  56.72999954
C     8.11999989   0.83999997  56.38000107
C     7.81000042   0.06000000  55.22999573
C     8.78999996  -0.19999999  54.29999924
C    10.11999989   0.28000000  54.45000076
C    14.25000000   1.08000004  55.22999573
C    14.98999977   0.69999999  54.08000183
C    16.36999893   0.79999995  53.95999908
C     6.40999985  -0.46999997  55.00999832
H     5.90335941   0.12940586  54.25360870
H    11.00999928  -0.57999998  52.64999771
H    11.98999977   1.48000002  57.06999969
H     9.73999977   1.47000003  57.68000031
H     7.39000034   1.13000000  57.11999893
H     8.57999992  -0.71999997  53.36999893
H    16.80999947   0.48000002  53.02000046
H     5.88999987  -0.46000001  55.97000122
H     6.57000017  -1.52999997  54.78000259
S    18.02000046   2.47000003  51.46999741
C    20.69999886   2.69000006  50.72000122
C    19.43000031   2.24000001  50.41999817
C    19.06999969   1.66999996  49.15999985
C    20.09000015   1.58999991  48.22000122
C    21.44000053   1.86000001  48.54000092
C    22.53000069   1.65000010  47.63999939
C    23.81000137   2.00000000  47.98999786
C    24.04000092   2.75000000  49.16999817
C    23.02999878   3.05999994  50.06000137
C    21.73999977   2.53999996  49.77000427
C    17.64999962   1.35000002  49.09999847
C    16.95000076   1.72999990  50.27000046
C    15.55999947   1.81999993  50.31000137
C    25.42000008   3.30000019  49.45999908
H    25.96803474   2.66655684  50.15750122
H    20.93000031   3.17999983  51.65999985
H    19.85999870   1.08999991  47.28000259
H    22.37999916   1.25000000  46.63999939
H    24.57999992   1.75999999  47.25999832
H    23.25000000   3.54999995  51.00000000
H    15.17000008   2.00999999  51.31000137
H    25.93000031   3.49000001  48.50999832
H    25.13999939   4.28000021  49.86000061
S    14.42999935   0.62000000  46.69000244
C    11.76000023   0.45000002  47.43999863
C    13.02000046   0.93000001  47.71999741
C    13.38999939   1.44999993  49.01000214
C    12.36999989   1.58999991  49.93000031
C    11.03000069   1.24000001  49.64000320
C    10.06999969   1.22000003  50.68999863
C     8.76999950   0.86000001  50.38999939
C     8.34999943   0.61000001  49.05000305
C     9.30999947   0.55000001  48.06999969
C    10.70000076   0.65999997  48.36000061
C    14.84000015   1.52999997  49.15000153
C    15.53999996   1.03999996  48.02000046
C    16.93000031   1.00999999  47.95000076
C     6.93000031   0.13000000  48.89999771
H     6.50315857   0.65643752  48.04631805
H    11.54999924  -0.06000000  46.50000000
H    12.61000061   1.87000012  50.94999695
H    10.43000031   1.47000003  51.68000031
H     8.01999950   1.05999994  51.13999939
H     8.97000027   0.29999998  47.06999969
H    17.39999962   0.79000002  46.98999786
H     6.35999966   0.28999999  49.81999969
H     7.00999975  -0.92000002  48.60000229
