96

S    17.46000099   1.92000008  57.49000168
C    20.17000008   2.17999983  56.81999969
C    18.90999985   1.74000001  56.49000168
C    18.56999969   1.34000003  55.14999771
C    19.60000038   1.24000001  54.22999954
C    20.92000008   1.58999991  54.56999969
C    22.06000137   1.38000000  53.74000168
C    23.34000015   1.58000004  54.19000244
C    23.62999916   2.26999998  55.40000153
C    22.56999969   2.36000013  56.27999878
C    21.25000000   1.99000001  55.90999985
C    17.13000107   1.28000009  54.97000122
C    16.36999893   1.52999997  56.13999939
C    15.00000000   1.72000003  56.18000031
C    24.96000099   2.89999986  55.73999786
H    25.32844925   2.32607126  56.59026337
H    20.52999878   2.61000013  57.75000000
H    19.34999847   0.86000001  53.23999786
H    21.86000061   1.11000001  52.70000076
H    24.18999863   1.34000003  53.55999756
H    22.60999870   2.73999977  57.29999924
H    14.50000000   2.01999998  57.09999847
H    25.59000015   2.75999999  54.85000229
H    24.84999847   3.95000005  56.00999832
S    13.92000008   0.75000000  52.55000305
C    11.23000050   0.87000000  53.02000046
C    12.48000050   1.19000006  53.48999786
C    12.81999969   1.53999996  54.84000397
C    11.80999947   1.62000000  55.77999878
C    10.50000000   1.29999995  55.34999847
C     9.44999981   1.18000007  56.30000305
C     8.19000053   0.71999997  55.96000290
C     7.88000011   0.59999996  54.58000183
C     8.84000015   0.78000003  53.61000061
C    10.19999981   0.97000003  53.97999573
C    14.27000046   1.56000006  55.00000000
C    15.03000069   1.08999991  53.88999939
C    16.39999962   0.92000002  53.81999969
C     6.54999971   0.03000000  54.15999985
H     6.03052139   0.43562010  53.29183197
H    11.02000046   0.48999998  52.02000046
H    12.05000019   1.61000001  56.84000015
H     9.76000023   1.29999995  57.34000397
H     7.55000019   0.25999999  56.70000076
H     8.67999935   0.55000001  52.55000305
H    16.87999916   0.64999998  52.88999939
H     5.92999983   0.24000001  55.04000092
H     6.65000010  -1.03999996  53.94000244
S    18.02000046   2.68000007  51.43000031
C    20.69000053   2.92000008  50.72999954
C    19.43000031   2.50999975  50.35999680
C    19.15999985   1.92000008  49.08000183
C    20.20999908   1.82999992  48.20000076
C    21.54999924   2.05999994  48.61000061
C    22.70000076   1.80000007  47.81000137
C    23.97999954   2.02999997  48.25000000
C    24.23000145   2.61999989  49.51000214
C    23.13999939   2.93000007  50.28999710
C    21.80000114   2.61000013  49.91000366
C    17.71999931   1.87000012  48.88000107
C    17.01000023   2.09000015  50.08999634
C    15.62999916   2.21000004  50.15999603
C    25.65000153   2.96999979  49.91000366
H    25.98420143   2.37981224  50.76328659
H    20.73999786   3.31999993  51.73999786
H    20.13000107   1.41000009  47.19999695
H    22.49000168   1.47000003  46.79000092
H    24.80999947   1.93000007  47.56000137
H    23.38999939   3.26999998  51.29000092
H    15.10000038   2.37000012  51.10000229
H    26.17000198   2.75999999  48.96999741
H    25.82999992   4.02999973  50.13000107
S    14.47000027   1.03999996  46.55000305
C    11.78999996   1.19000006  47.25999832
C    13.09999943   1.44999993  47.60000229
C    13.45999908   2.00999999  48.86000061
C    12.46999931   2.26999998  49.79000092
C    11.11999989   1.98000002  49.51000214
C    10.03000069   2.20000005  50.40000153
C     8.76999950   1.72000003  50.13999939
C     8.50000000   1.05999994  48.90999603
C     9.48000050   0.88000000  47.95999908
C    10.77999973   1.39999998  48.22999954
C    14.91000080   2.03999996  48.96999741
C    15.57999992   1.71000004  47.76000214
C    16.95000076   1.52999997  47.75000000
C     7.03999996   0.73000002  48.69999695
H     6.64180040   1.16375303  47.78272247
H    11.42000008   0.61000001  46.42000198
H    12.68000031   2.68000007  50.77999878
H    10.31000042   2.66000009  51.35000229
H     7.96000004   1.89999998  50.84000015
H     9.34000015   0.37000000  47.01000214
H    17.52000046   1.26999998  46.86000061
H     6.43000031   1.10000002  49.52999878
H     7.11999989  -0.35999998  48.55999756
