96

S    17.52000046   1.56000006  57.63000107
C    20.22999954   1.67999995  56.90000153
C    18.95000076   1.25999999  56.63000107
C    18.52000046   0.88000000  55.31000137
C    19.51000023   0.71999997  54.36000061
C    20.86999893   1.00999999  54.61999893
C    21.87000084   0.82999998  53.62999725
C    23.18000031   1.04999995  54.00000000
C    23.54000092   1.65000010  55.24000168
C    22.59000015   1.84000003  56.20999908
C    21.22999954   1.56000006  55.90000153
C    17.07999992   0.88000000  55.13000107
C    16.38000107   1.22000003  56.31000137
C    14.98999977   1.22000003  56.37000275
C    25.00999832   1.97000003  55.43000031
H    25.43927956   1.27599907  56.15262222
H    20.51000214   2.00000000  57.90000153
H    19.31999969   0.52999997  53.30999756
H    21.63000107   0.41999999  52.64999771
H    23.97000122   0.90999997  53.27000046
H    22.88999939   2.42000008  57.08000183
H    14.35999966   1.53999996  57.19999695
H    25.43999863   2.04999995  54.41999817
H    25.15999985   3.02999997  55.65999985
S    13.82999992   0.09000000  52.78999710
C    11.13999939   0.02000000  53.50000000
C    12.43000031   0.32000002  53.86000061
C    12.76000023   0.69999999  55.20000076
C    11.78999996   1.00000000  56.13999939
C    10.46000004   0.71999997  55.76000214
C     9.38000011   0.75999999  56.69000244
C     8.07999992   0.55000001  56.31000137
C     7.76999998   0.25999999  54.94999695
C     8.76000023   0.04000000  54.02999878
C    10.11000061   0.20999999  54.45999908
C    14.22000027   0.78000003  55.28999710
C    14.94999981   0.48999998  54.10999680
C    16.32999992   0.54000002  54.00000000
C     6.34999990  -0.07000000  54.54000092
H     5.84998131   0.55145186  53.79711533
H    10.85000038  -0.28999999  52.50000000
H    11.90000057   1.36999989  57.15999985
H     9.59000015   1.12000000  57.69000244
H     7.27999973   0.61000001  57.04000092
H     8.57999992  -0.20999999  52.98999786
H    16.84999847   0.19000000  53.11000061
H     5.88000011  -0.05000000  55.52999878
H     6.34000015  -1.14999998  54.33000183
S    14.14000034  -1.69000006  49.86999893
C    11.46000004  -2.26999998  50.40999985
C    12.77999973  -2.42000008  50.75000000
C    13.22000027  -2.96000004  52.01000214
C    12.20999908  -3.38999987  52.84999847
C    10.82999992  -3.31999993  52.54000092
C     9.81000042  -3.72000003  53.43999863
C     8.50000000  -3.35999990  53.23999786
C     8.19000053  -2.66000009  52.04000092
C     9.07999992  -2.45000005  51.02000427
C    10.44000053  -2.77999997  51.25999832
C    14.67000008  -2.96000004  52.15000153
C    15.27999973  -2.17999983  51.13999939
C    16.61999893  -1.81999993  51.10000229
C     6.74000025  -2.36000013  51.73999786
H     6.34241056  -3.04868174  50.99451828
H    11.30000019  -1.64000010  49.54000092
H    12.51999950  -3.72000003  53.83999634
H    10.19000053  -4.33999968  54.25000000
H     7.68000031  -3.73000002  53.85000229
H     8.85000038  -2.01999998  50.04000092
H    17.05999947  -1.49000001  50.15999603
H     6.10000038  -2.38000011  52.63999939
H     6.57999992  -1.33000004  51.38999939
S    18.01000023  -3.44000006  54.45000076
C    20.66999817  -3.07999992  53.64999771
C    19.34000015  -2.84999990  53.41999817
C    18.85000038  -2.29999995  52.18999863
C    19.78000069  -1.84000003  51.27999878
C    21.17000198  -1.87000012  51.56999969
C    22.13999939  -1.35000002  50.65999985
C    23.47999954  -1.48000002  50.91999817
C    23.92999840  -2.14000010  52.09999847
C    23.02000046  -2.56999993  53.04000092
C    21.63000107  -2.49000001  52.78999710
C    17.38999939  -2.30999994  52.16999817
C    16.80999947  -3.10999990  53.18999863
C    15.46000004  -3.42999983  53.20000076
C    25.39999962  -2.48000002  52.18999863
H    25.76817513  -2.12598467  53.15291977
H    21.02000046  -3.68000007  54.48999786
H    19.45999908  -1.41000009  50.34000015
H    21.80000114  -0.90000004  49.72999954
H    24.20999908  -1.08999991  50.21999741
H    23.45999908  -3.01999998  53.93000031
H    15.01000023  -3.91000009  54.06000137
H    25.96999931  -1.88999999  51.45999908
H    25.46999931  -3.54999995  52.00000000
