96

S    17.46999931   1.72000003  57.62000275
C    20.15999985   1.95999992  56.97000122
C    18.90999985   1.53999996  56.59000015
C    18.55999947   0.97999996  55.31999969
C    19.63999939   0.68000007  54.50000000
C    20.96999931   1.05999994  54.79999924
C    22.04000092   0.93999994  53.88000107
C    23.31999969   1.38999999  54.13000107
C    23.54999924   2.04999995  55.37000275
C    22.56999969   2.04999995  56.32999802
C    21.21999931   1.66999996  56.07999802
C    17.13000107   0.76999998  55.13000107
C    16.43000031   1.25000000  56.25999832
C    15.03999901   1.24000001  56.38000107
C    24.96000099   2.51999998  55.65000153
H    25.48705482   1.89323163  56.36935806
H    20.36000061   2.33999991  57.97000122
H    19.50000000   0.32999998  53.47999954
H    21.97000122   0.46999997  52.90000153
H    24.17000008   1.12000000  53.52000427
H    22.73999977   2.50999975  57.29999924
H    14.52999973   1.59999990  57.27000427
H    25.59999847   2.49000001  54.75999832
H    24.76000023   3.55999994  55.94999695
S    13.88000011   0.13000000  52.77000046
C    11.16000080   0.11000000  53.47999954
C    12.46999931   0.34999999  53.82999802
C    12.81000042   0.71999997  55.17000198
C    11.82000065   1.08000004  56.06999969
C    10.46000004   0.90999997  55.70999908
C     9.40999985   1.22000003  56.62000275
C     8.11999989   0.92000002  56.27999878
C     7.77999973   0.37000000  55.00999832
C     8.76999950   0.16000001  54.09000015
C    10.13000011   0.46000001  54.38999939
C    14.26000023   0.78000003  55.31000137
C    14.96999931   0.37000000  54.15999985
C    16.35000038   0.34000003  54.05000305
C     6.39999962  -0.24000001  54.84000397
H     5.95168495   0.17273480  53.93625259
H    10.90999985  -0.29999998  52.50000000
H    12.05000019   1.49000001  57.04000092
H     9.63000011   1.41000009  57.67000198
H     7.36999989   0.82000005  57.05999756
H     8.61999989  -0.23000000  53.08000183
H    16.84000015   0.05000000  53.11999893
H     5.75000000  -0.09000000  55.70999908
H     6.61000013  -1.30999994  54.72999954
S    18.02999878   2.02999997  51.73999786
C    20.69999886   2.11999989  51.05999756
C    19.42000008   1.81999993  50.65999985
C    19.06999969   1.42000008  49.31999969
C    20.09000015   1.47000003  48.39000320
C    21.45000076   1.46000004  48.81000137
C    22.53000069   1.39999998  47.88999939
C    23.84000015   1.58000004  48.27999878
C    24.05999947   2.03999996  49.59999847
C    23.06999969   2.17999983  50.54999924
C    21.76000214   1.79000008  50.18000031
C    17.64999962   1.13000000  49.25000000
C    16.95000076   1.58000004  50.40999985
C    15.57000065   1.67999995  50.40999985
C    25.46999931   2.38000011  50.00999832
H    25.85519218   1.63101697  50.70191574
H    20.86999893   2.61000013  52.02000046
H    19.80999947   1.53999996  47.34000397
H    22.27000046   1.38000000  46.84000015
H    24.65999985   1.58000004  47.56999969
H    23.26999855   2.61000013  51.52999878
H    15.00000000   1.82999992  51.32999802
H    26.15999985   2.59999990  49.18000031
H    25.42000008   3.30000019  50.61999893
S    14.48999977   0.90999997  46.70000076
C    11.73999977   0.78000003  47.43999863
C    13.03999996   1.15999997  47.69000244
C    13.40000057   1.56000006  49.02000046
C    12.42000008   1.82999992  49.95999908
C    11.05999947   1.51999998  49.69999695
C    10.01999950   1.66999996  50.65000153
C     8.76999950   1.14999998  50.40000153
C     8.43999958   0.65999997  49.09999847
C     9.38000011   0.64000005  48.09999847
C    10.72999954   0.97000003  48.40999985
C    14.84000015   1.59999990  49.22000122
C    15.55999947   1.08000004  48.11000061
C    16.93000031   0.87000000  48.08000183
C     7.04999971   0.14000000  48.82999802
H     6.53048897   0.58834535  47.98312378
H    11.50000000   0.35999998  46.46999741
H    12.64999962   2.21000004  50.94999695
H    10.21999931   1.92000008  51.69000244
H     7.97999954   1.16999996  51.13999939
H     9.09000015   0.23000000  47.14000320
H    17.40999985   0.61000001  47.12999725
H     6.47000027   0.27000001  49.75999832
H     7.17000008  -0.92000002  48.57999802
