96

S    17.50000000   2.23000002  57.72999573
C    20.20999908   2.09999990  57.08000183
C    18.90999985   1.76999998  56.77000046
C    18.51000023   1.36000013  55.45999908
C    19.51000023   1.08000004  54.54999924
C    20.88000107   1.35000002  54.78000259
C    21.96000099   1.34000003  53.85000229
C    23.19000053   1.88999999  54.12000275
C    23.46999931   2.39999986  55.41999817
C    22.46999931   2.48000002  56.36000061
C    21.19999886   1.89999998  56.07999802
C    17.05999947   1.41000009  55.30000305
C    16.34000015   1.87000012  56.43000031
C    14.96000099   1.86000001  56.56000137
C    24.82999992   2.92000008  55.79999924
H    25.36339188   2.23725915  56.46140289
H    20.40999985   2.56999993  58.04000092
H    19.30999947   0.74000001  53.54000092
H    21.75000000   0.85000002  52.90000153
H    23.88999939   1.93000007  53.29000092
H    22.62000084   2.86000013  57.36999893
H    14.45000076   2.21000004  57.44999695
H    25.36999893   3.05000019  54.85000229
H    24.61000061   3.91999984  56.18999863
S    13.81000042   0.46999997  53.04000092
C    11.13000011   0.37000000  53.75999832
C    12.39999962   0.79999995  54.06999969
C    12.75000000   1.49000001  55.27000046
C    11.79999924   1.75000000  56.25000000
C    10.51000023   1.23000002  55.97999954
C     9.44000053   1.43999994  56.88999939
C     8.17000008   0.99000001  56.58000183
C     7.83999968   0.24000001  55.43000031
C     8.85999966  -0.01000000  54.54000092
C    10.17000008   0.50000000  54.79000092
C    14.19999981   1.50999999  55.44000244
C    14.91000080   1.08999991  54.27999878
C    16.28999901   0.93999994  54.22999954
C     6.40999985  -0.01000000  55.00000000
H     5.95553493   0.55098093  54.18338394
H    10.86999989  -0.17999999  52.85999680
H    12.20999908   2.17999983  57.15999985
H     9.72999954   1.82999992  57.85999680
H     7.44999981   1.25000000  57.35000229
H     8.61999989  -0.46000001  53.57999802
H    16.80999947   0.44000000  53.41999817
H     5.82000017   0.31000000  55.86999893
H     6.34999990  -1.10000002  54.91000366
S    17.54999924   2.44000006  51.73999786
C    20.23999977   2.47000003  51.05999756
C    18.95000076   2.19000006  50.68000031
C    18.60999870   1.74000001  49.36000061
C    19.63000107   1.72000003  48.41999817
C    20.96999931   1.98000002  48.76999664
C    22.09000015   1.92000008  47.88000107
C    23.35000038   2.25999999  48.33000183
C    23.67000198   2.61999989  49.65999985
C    22.60999870   2.68000007  50.54999924
C    21.28999901   2.38000011  50.11000061
C    17.15999985   1.63000000  49.27000046
C    16.43000031   2.07999992  50.40000153
C    15.05000019   2.16999984  50.38000107
C    25.05000114   3.10999990  50.00999832
H    25.60351562   2.42165422  50.64867020
H    20.52000046   2.71000004  52.08000183
H    19.34999847   1.25999999  47.48000336
H    21.87999916   1.67999995  46.84000015
H    24.13999939   2.42000008  47.61000061
H    22.72999954   3.28999996  51.44000244
H    14.48999977   2.50000000  51.25999832
H    25.62000084   3.38000011  49.12000275
H    24.96999931   4.02999973  50.61999893
S    14.07999992   1.14999998  46.65999985
C    11.31000042   0.93000001  47.29000092
C    12.61999989   1.13000000  47.65999603
C    12.94000053   1.59999990  48.97999573
C    11.94000053   1.72999990  49.93000031
C    10.59000015   1.49000001  49.54999924
C     9.52000046   1.66999996  50.47000122
C     8.19000053   1.47000003  50.13999939
C     7.90000010   0.96000004  48.85000229
C     8.89000034   0.78000003  47.90999985
C    10.25000000   1.04999995  48.22000122
C    14.35999966   1.77999997  49.22999954
C    15.11000061   1.47000003  48.06999969
C    16.48999977   1.28000009  48.09000015
C     6.46000004   0.69000000  48.48999786
H     6.06229258   1.38598776  47.75139618
H    11.18000031   0.59999996  46.25999832
H    12.20999908   2.00999999  50.93999863
H     9.72999954   2.01999998  51.46999741
H     7.46999979   1.75999999  50.90000153
H     8.65999985   0.38000000  46.91999817
H    17.05999947   1.04999995  47.19999695
H     5.93999958   0.61000001  49.45000076
H     6.48000002  -0.34999999  48.13999939
