96

S    17.28000069   2.29999995  57.38999939
C    19.96000099   2.51999998  56.59999847
C    18.71000099   1.99000001  56.38999939
C    18.34000015   1.25999999  55.20999908
C    19.37999916   0.97000003  54.34000015
C    20.66999817   1.51999998  54.48999786
C    21.73000145   1.29999995  53.54999924
C    23.02000046   1.63000000  53.88000107
C    23.34000015   2.38999987  55.04000092
C    22.32999992   2.70000005  55.91999817
C    21.00000000   2.25999999  55.66999817
C    16.90999985   1.08000004  55.00000000
C    16.23999977   1.75999999  56.05999756
C    14.85999966   1.92000008  56.04999924
C    24.79000092   2.75000000  55.28999710
H    25.21035385   2.24415183  56.15920258
H    20.15999985   3.07999992  57.50999832
H    19.17000008   0.41000003  53.43000031
H    21.60000038   0.71000004  52.64999771
H    23.78000069   1.35000002  53.15999985
H    22.56000137   2.99000001  56.93999863
H    14.32999992   2.49000001  56.79999924
H    25.28000069   2.49000001  54.34000015
H    24.82000160   3.82999992  55.45999908
S    13.67000008   0.14999999  52.68000031
C    10.93000031   0.34999999  53.39000320
C    12.25000000   0.63000000  53.63999939
C    12.68000031   1.35000002  54.79999924
C    11.77000046   1.66999996  55.79000092
C    10.39999962   1.36000013  55.56999969
C     9.39999962   1.52999997  56.56999969
C     8.06999969   1.28000009  56.31000137
C     7.65999985   0.61000001  55.13000107
C     8.60000038   0.37000000  54.15000153
C     9.94999981   0.75999999  54.34000015
C    14.11999893   1.39999998  54.98000336
C    14.80000019   0.76999998  53.89999771
C    16.17000008   0.59999996  53.92000198
C     6.24000025   0.14999999  54.93000031
H     5.70959187   0.59554327  54.08842087
H    10.59000015  -0.09000000  52.45999908
H    12.05000019   1.93000007  56.81000137
H     9.71000004   2.04999995  57.47000122
H     7.30999994   1.50000000  57.04999924
H     8.43000031  -0.32000002  53.33000183
H    16.76000023   0.19999999  53.09000015
H     5.66999960   0.38000000  55.84000015
H     6.42000008  -0.92000002  54.75999832
S    14.27999973  -1.65999997  49.79999924
C    11.65999985  -2.32999992  50.38999939
C    12.98999977  -2.47000003  50.70999908
C    13.45000076  -2.99000001  51.95999908
C    12.48000050  -3.42999983  52.84000015
C    11.09000015  -3.30999994  52.58999634
C    10.11000061  -3.51999998  53.60000229
C     8.78000069  -3.25999999  53.36999893
C     8.36000061  -2.89999986  52.05999756
C     9.28999996  -2.76999998  51.04999924
C    10.70000076  -2.86999989  51.27999878
C    14.86999989  -2.73000002  52.15999985
C    15.44999981  -2.00000000  51.09000397
C    16.79999924  -1.64000010  51.12999725
C     6.89000034  -2.66000009  51.81999969
H     6.46831131  -3.06024694  50.89800262
H    11.33999920  -1.81999993  49.48999786
H    12.67000008  -3.72000003  53.87000275
H    10.44999981  -4.00999975  54.51000214
H     7.96999979  -3.33999991  54.08000183
H     8.90999985  -2.29999995  50.14999771
H    17.35999870  -1.38000000  50.25000000
H     6.37000036  -3.19999981  52.63000107
H     6.77999973  -1.57000005  51.95999908
S    18.20999908  -3.00000000  54.54000092
C    20.88999939  -2.56999993  53.67000198
C    19.54000092  -2.40999985  53.52000427
C    19.04000092  -1.86000001  52.29999924
C    19.92000008  -1.49000001  51.30000305
C    21.32999802  -1.49000001  51.45999908
C    22.22999954  -0.82999998  50.59000015
C    23.57999992  -0.93999994  50.84000015
C    24.04000092  -1.72999990  51.93000031
C    23.19999886  -2.23000002  52.88999939
C    21.80000114  -2.05999994  52.70000076
C    17.59000015  -1.93000007  52.25000000
C    16.97999954  -2.63000011  53.31999969
C    15.65999985  -3.05999994  53.27000046
C    25.50000000  -2.09000015  52.05999756
H    25.83443642  -1.62036610  52.98503494
H    21.27000046  -3.02999997  54.58000183
H    19.57999992  -1.03999996  50.37000275
H    21.83000183  -0.19999999  49.79000092
H    24.20999908  -0.51999998  50.06000137
H    23.55999947  -2.86999989  53.68999863
H    15.25000000  -3.70000005  54.03999710
H    26.09000015  -1.77999997  51.18000031
H    25.68000031  -3.16000009  52.16999817
