96

S    17.46999931   1.62000000  57.84000015
C    20.15999985   1.72999990  57.22000122
C    18.89000130   1.38000000  56.81000137
C    18.52000046   1.08000004  55.47000122
C    19.50000000   0.83999997  54.52000046
C    20.81999969   1.10000002  54.95999908
C    21.84000015   1.02999997  53.95999908
C    23.09999847   1.46000004  54.29999924
C    23.48999977   2.04999995  55.54000092
C    22.52000046   2.04999995  56.51000214
C    21.17000198   1.67999995  56.23000336
C    17.06999969   1.08999991  55.27999878
C    16.36999893   1.43000007  56.45999908
C    14.98000050   1.49000001  56.49000168
C    24.94999886   2.37000012  55.76000214
H    25.28589249   1.66962767  56.52469254
H    20.45999908   2.23000002  58.13000107
H    19.19000053   0.56999999  53.50999832
H    21.71999931   0.71999997  52.93000031
H    23.88000107   1.39999998  53.54999924
H    22.70999908   2.45000005  57.50999832
H    14.56999969   1.74000001  57.47000122
H    25.53999901   2.33999991  54.84000397
H    25.10000038   3.38999987  56.13999939
S    13.86999989  -0.05000000  53.02999878
C    11.18000031   0.02000000  53.72000122
C    12.48000050   0.34000003  54.06000137
C    12.79000092   0.97999996  55.30000305
C    11.77000046   1.25999999  56.18999863
C    10.47000027   0.71999997  55.97000122
C     9.39000034   0.85000002  56.88000107
C     8.10000038   0.55000001  56.50000000
C     7.82999992   0.02000000  55.20999908
C     8.84000015  -0.28000000  54.31999969
C    10.14999962   0.14000000  54.68999863
C    14.23999977   1.07000005  55.38000107
C    14.96999931   0.62000000  54.25000000
C    16.35000038   0.69000000  54.13999939
C     6.39999962  -0.39000002  54.93000031
H     5.91505814   0.24470320  54.18832397
H    10.88000107  -0.35999998  52.75000000
H    12.05000019   1.66999996  57.15000153
H     9.59999943   1.16999996  57.90000153
H     7.27999973   0.75000000  57.18000031
H     8.56999969  -0.69999999  53.36000061
H    16.94000053   0.32999998  53.30999756
H     5.82000017  -0.37000000  55.86000061
H     6.30000019  -1.43000007  54.61000061
S    14.18000031  -2.01999998  50.34999847
C    11.52999973  -2.64999986  50.94999695
C    12.86000061  -2.80999994  51.24000168
C    13.26000023  -3.33999991  52.50000000
C    12.30999947  -3.84000015  53.37999725
C    10.93999958  -3.74000025  53.04999924
C    10.00000000  -4.33999968  53.93000031
C     8.67000008  -4.17000008  53.62999725
C     8.25000000  -3.49000001  52.44999695
C     9.13000011  -2.79999995  51.65000153
C    10.51000023  -3.10999990  51.83000183
C    14.68999958  -3.17000008  52.71999741
C    15.31000042  -2.50999975  51.63000107
C    16.61000061  -2.03999996  51.55000305
C     6.78999996  -3.17000008  52.27000427
H     6.41261292  -3.39785647  51.27312851
H    11.18999958  -2.07999992  50.08999634
H    12.58999920  -4.51000023  54.19000244
H    10.26999950  -4.67999983  54.93000031
H     7.94000053  -4.26000023  54.41999817
H     8.82000065  -2.02999997  50.94999695
H    16.86000061  -1.26999998  50.81999969
H     6.17999983  -3.60000014  53.08000183
H     6.61000013  -2.10999990  52.48000336
S    18.09999847  -3.81999993  54.81999969
C    20.72999954  -3.16000009  54.05000305
C    19.37999916  -3.03999996  53.86000061
C    18.82999992  -2.29999995  52.76000214
C    19.68000031  -1.70000005  51.84000015
C    21.07000160  -1.94999993  51.95000076
C    22.04000092  -1.44999993  51.03000259
C    23.38999939  -1.57000005  51.25000000
C    23.92999840  -2.17999983  52.41000366
C    23.02999878  -2.73000002  53.29999924
C    21.61999893  -2.56999993  53.11999893
C    17.42000008  -2.56999993  52.56000137
C    16.87000084  -3.25000000  53.67000198
C    15.52000046  -3.53999996  53.79000092
C    25.40999985  -2.25000000  52.68000031
H    25.66633224  -2.08623123  53.72669601
H    20.93000031  -3.74000025  54.94999695
H    19.29000092  -1.33000004  50.89000320
H    21.65999985  -0.96000004  50.13000107
H    23.98999977  -1.15999997  50.45000076
H    23.44000053  -3.37000012  54.06999969
H    15.11000061  -4.00000000  54.68000031
H    26.01000023  -1.58000004  52.04999924
H    25.59000015  -3.28000021  52.35000229
