96

S    17.32999992   2.50000000  57.57999802
C    20.06000137   2.56999993  56.88999939
C    18.77000046   2.16000009  56.59999847
C    18.40999985   1.56000006  55.35999680
C    19.42000008   1.34000003  54.43999863
C    20.78000069   1.61000001  54.71000290
C    21.83000183   1.22000003  53.82999802
C    23.13999939   1.43999994  54.19000244
C    23.45999908   2.06999993  55.43000031
C    22.44999886   2.51999998  56.24000168
C    21.07999992   2.23000002  55.97000122
C    16.95999908   1.44999993  55.20000076
C    16.22999954   1.93000007  56.31999969
C    14.85000038   2.04999995  56.38999939
C    24.89999962   2.34999990  55.77000046
H    25.32675934   1.68852425  56.52394104
H    20.36000061   3.05999994  57.81000137
H    19.10000038   0.90000004  53.48999786
H    21.54000092   0.86000001  52.84999847
H    23.97000122   1.16999996  53.54999924
H    22.59000015   2.93000007  57.23999786
H    14.32000065   2.31999993  57.30999756
H    25.46999931   2.31999993  54.84000397
H    25.02000046   3.33999991  56.24000168
S    13.68000031   0.79000002  52.85999680
C    10.98000050   0.69999999  53.50999832
C    12.27000046   0.94999999  53.93000031
C    12.67000008   1.50000000  55.19000244
C    11.64999962   1.58999991  56.11000061
C    10.29000092   1.28000009  55.83000183
C     9.26000023   1.44999993  56.79000092
C     7.94000053   1.25999999  56.45999908
C     7.60999966   0.93000001  55.12000275
C     8.59000015   0.69000000  54.19000244
C     9.96000004   0.93000001  54.47000122
C    14.11000061   1.71000004  55.26000214
C    14.82999992   1.21000004  54.13999939
C    16.21999931   1.05999994  54.08000183
C     6.15000010   0.67000002  54.80999756
H     5.72081232   1.39961958  54.12329865
H    10.71000004   0.25000000  52.56000137
H    11.73999977   1.88999999  57.15000153
H     9.50000000   1.62000000  57.84000015
H     7.23000002   1.24000001  57.28000259
H     8.32999992   0.22000000  53.23999786
H    16.64999962   0.85000002  53.11000061
H     5.40999985   0.64000005  55.61999893
H     6.12999964  -0.32999998  54.36000061
S    17.87999916   2.52999997  51.59999847
C    20.59000015   2.70000005  50.87999725
C    19.29999924   2.31999993  50.56000137
C    18.92000008   1.87000012  49.25000000
C    19.90999985   1.69000006  48.30999756
C    21.25000000   2.00999999  48.61999893
C    22.34999847   1.94000006  47.70999908
C    23.64999962   2.19000006  48.06000137
C    24.03000069   2.56999993  49.36999893
C    22.98000145   2.72000027  50.25000000
C    21.61999893   2.50999975  49.92000198
C    17.47999954   1.79000008  49.09000015
C    16.77999878   2.20000005  50.25000000
C    15.40999985   2.38000011  50.33000183
C    25.46999931   2.91000009  49.66999817
H    25.89625931   2.29902864  50.46568298
H    20.79999924   3.05000019  51.88000107
H    19.70000076   1.41000009  47.28000259
H    22.03000069   1.57000005  46.73999786
H    24.36000061   2.06999993  47.23999786
H    23.22999954   3.00000000  51.26999664
H    15.00000000   2.63999987  51.30000305
H    26.00000000   2.79999995  48.70999908
H    25.62999916   3.95000005  49.97000122
S    14.26000023   1.08999991  46.77000046
C    11.56999969   1.01999998  47.43999863
C    12.82999992   1.48000002  47.74000168
C    13.19000053   2.02999997  49.01000214
C    12.18999958   2.11999989  49.97000122
C    10.85000038   1.80999994  49.65999985
C     9.77999973   1.87000012  50.59999847
C     8.48999977   1.53999996  50.25000000
C     8.18000031   1.01999998  48.96999741
C     9.22000027   0.76999998  48.09999847
C    10.52000046   1.26999998  48.36999893
C    14.63999939   2.10999990  49.19000244
C    15.34999943   1.58999991  48.08000183
C    16.70999908   1.35000002  48.00000000
C     6.76000023   0.59999996  48.66000366
H     6.28386974   1.26800418  47.94224930
H    11.23999977   0.56000000  46.51000214
H    12.41000080   2.52999997  50.94999695
H    10.14000034   2.14000010  51.59000015
H     7.73000002   1.49000001  51.02000427
H     9.02000046   0.25000000  47.15999985
H    17.15999985   0.76999998  47.19999695
H     6.24000025   0.39000002  49.61000061
H     6.98000002  -0.34999999  48.15999985
