96

S    17.68000031   2.05999994  57.55000305
C    20.36999893   2.28999996  56.86000061
C    19.09000015   1.95999992  56.47999573
C    18.77000046   1.46000004  55.17000198
C    19.76000023   1.30999994  54.22999954
C    21.07999992   1.72999990  54.54000092
C    22.17000008   1.50000000  53.66000366
C    23.47999954   1.70000005  54.02000046
C    23.77000046   2.17999983  55.33000183
C    22.75000000   2.28999996  56.25000000
C    21.38999939   2.05999994  55.90000153
C    17.34000015   1.18000007  55.06000137
C    16.61000061   1.54999995  56.22000122
C    15.22999954   1.56000006  56.36000061
C    25.20000076   2.48000002  55.72999954
H    25.54756737   1.92673087  56.60246277
H    20.59999847   2.63000011  57.87000275
H    19.51000023   0.90999997  53.25000000
H    21.93000031   1.25999999  52.63000107
H    24.30000114   1.52999997  53.31999969
H    22.79999924   2.72000027  57.23999786
H    14.80999947   1.79000008  57.34000397
H    25.88999939   2.28999996  54.89999771
H    25.30999947   3.53999996  55.97999954
S    14.06999969   0.61000001  52.70000076
C    11.36999989   0.32000002  53.34999847
C    12.64000034   0.64000005  53.75000000
C    13.03999996   1.08000004  55.05000305
C    12.05999947   1.23000002  56.02000427
C    10.72999954   0.92000002  55.65999985
C     9.68999958   0.92000002  56.63000107
C     8.38999939   0.61000001  56.29000092
C     8.03999996   0.03000000  55.04000092
C     9.03999996   0.01000000  54.09000015
C    10.36999893   0.41999999  54.34999847
C    14.47000027   1.28999996  55.21999741
C    15.18000031   0.90000004  54.05000305
C    16.55999947   0.79999995  53.96999741
C     6.70000029  -0.56000000  54.69999695
H     6.20333958  -0.03495866  53.88405609
H    11.14999962  -0.17999999  52.41000366
H    12.30999947   1.46000004  57.04999924
H    10.01999950   1.24000001  57.61000061
H     7.63000011   0.75000000  57.04999924
H     8.73999977  -0.25999999  53.08000183
H    17.01000023   0.55000001  53.01000214
H     6.07999992  -0.48999998  55.59999847
H     6.86999989  -1.62000000  54.43999863
S    14.04000092  -1.74000001  50.00000000
C    11.32999992  -2.13000011  50.61999893
C    12.64999962  -2.38000011  50.90000153
C    13.05999947  -2.86000013  52.18000031
C    12.10999966  -3.40999985  53.01000214
C    10.73999977  -3.32999992  52.64999771
C     9.77000046  -3.84999990  53.54999924
C     8.42000008  -3.70000005  53.29999924
C     8.03999996  -2.94999981  52.15999985
C     8.92000008  -2.49000001  51.20999908
C    10.31000042  -2.68000007  51.44000244
C    14.51000023  -2.77999997  52.35000229
C    15.19000053  -2.13000011  51.30000305
C    16.50000000  -1.67999995  51.33999634
C     6.57999992  -2.89000010  51.73999786
H     6.42390633  -3.64208674  50.96662903
H    11.00999928  -1.54999995  49.75000000
H    12.25999928  -3.81999993  54.01000214
H    10.06999969  -4.23000002  54.52000046
H     7.63000011  -4.25000000  53.80000305
H     8.61999989  -1.94000006  50.31999969
H    17.05000114  -1.22000003  50.52000046
H     5.88000011  -3.02999997  52.56999969
H     6.34999990  -1.92000008  51.29000092
S    17.71000099  -3.23000002  54.84000397
C    20.35000038  -2.63000011  54.22999954
C    19.02000046  -2.48000002  53.90999603
C    18.68999863  -1.88999999  52.64999771
C    19.63999939  -1.31999993  51.81999969
C    21.01000023  -1.50999999  52.09999847
C    22.11000061  -1.15999997  51.26999664
C    23.40999985  -1.50000000  51.53999710
C    23.67000198  -2.14000010  52.78999710
C    22.70000076  -2.38000011  53.73000336
C    21.34000015  -2.15000010  53.34999847
C    17.26000023  -2.04999995  52.45999908
C    16.62999916  -2.79999995  53.48999786
C    15.27999973  -3.12000012  53.47000122
C    25.10999870  -2.56000018  53.01000214
H    25.52779007  -2.04307127  53.87390900
H    20.52999878  -3.25999999  55.11000061
H    19.40999985  -0.81000000  50.87999725
H    21.80999947  -0.61000001  50.38000107
H    24.27000046  -1.23000002  50.93000031
H    22.95000076  -2.87999988  54.65999985
H    14.77000046  -3.61000013  54.29999924
H    25.69000053  -2.37000012  52.11000061
H    25.12000084  -3.63000011  53.23999786
