96

S    17.68000031   2.25000000  57.42000198
C    20.36000061   2.36000013  56.86999893
C    19.11999893   1.97000003  56.42000198
C    18.81999969   1.26999998  55.20999908
C    19.93999863   0.96000004  54.45000076
C    21.22999954   1.44999993  54.78000259
C    22.40999985   1.14999998  54.03999710
C    23.67000198   1.42000008  54.52000046
C    23.88000107   2.27999997  55.63000107
C    22.78000069   2.50000000  56.43000031
C    21.47999954   2.04999995  56.06999969
C    17.38999939   1.08999991  55.00000000
C    16.67000008   1.58000004  56.11999893
C    15.29000092   1.72000003  56.16000366
C    25.28000069   2.64999986  56.09000397
H    25.80602455   1.83963990  56.59469986
H    20.51000214   3.07000017  57.67000198
H    19.90999985   0.34000003  53.55999756
H    22.18000031   0.62000000  53.11999893
H    24.53000069   1.02999997  54.00000000
H    22.86000061   3.01999998  57.37999725
H    14.78000069   2.06999993  57.04999924
H    25.82999992   3.25999999  55.35999680
H    25.12000084   3.47000003  56.79999924
S    14.11000061   0.31000000  52.63999939
C    11.38000011   0.39999998  53.31999969
C    12.69999981   0.65999997  53.63999939
C    13.09999943   1.08000004  54.94999695
C    12.09000015   1.29999995  55.86000061
C    10.72000027   1.08999991  55.58000183
C     9.63999939   1.34000003  56.47999573
C     8.32999992   1.12000000  56.12999725
C     7.97999954   0.65999997  54.84000397
C     8.97999954   0.39999998  53.93000031
C    10.34999943   0.63000000  54.26000214
C    14.53999996   1.30999994  55.05000305
C    15.22999954   0.78000003  53.93000031
C    16.61000061   0.63000000  53.93000031
C     6.53999996   0.31000000  54.52999878
H     6.13492346   0.80746245  53.64878082
H    11.23000050  -0.09000000  52.36000061
H    12.35999966   1.76999998  56.79999924
H    10.01999950   1.62000000  57.45999908
H     7.59999990   1.14999998  56.93999863
H     8.69000053   0.07000000  52.94000244
H    17.18000031   0.27000001  53.08000183
H     5.86999989   0.34000003  55.40000153
H     6.69000053  -0.75000000  54.31000137
S    18.25000000   2.32999992  51.81000137
C    20.97999954   2.31999993  51.22000122
C    19.69000053   2.02999997  50.83000183
C    19.37000084   1.43999994  49.55999756
C    20.38999939   1.41000009  48.62999725
C    21.70999908   1.75999999  48.96999741
C    22.77000046   1.72999990  48.01000214
C    24.02000046   2.16999984  48.34999847
C    24.36000061   2.59999990  49.65999985
C    23.35000038   2.71000004  50.59000015
C    22.04999924   2.21000004  50.28999710
C    17.93000031   1.38999999  49.34000015
C    17.20000076   1.80000007  50.47999954
C    15.81999969   1.94999993  50.51000214
C    25.71000099   3.17000008  50.04000092
H    26.13781738   2.56392717  50.83859253
H    21.09000015   2.66999984  52.23999786
H    20.12000084   1.23000002  47.58999634
H    22.65000153   1.39999998  46.97000122
H    24.79000092   2.13000011  47.58999634
H    23.52000046   3.26999998  51.51000214
H    15.25000000   2.19000006  51.39999771
H    26.44000053   3.19000006  49.22000122
H    25.53999901   4.19999981  50.38000107
S    14.78999996   1.01999998  46.76000214
C    12.10000038   0.69999999  47.57999802
C    13.38999939   1.08999991  47.84999847
C    13.73999977   1.64000010  49.13000107
C    12.71999931   1.85000002  50.05000305
C    11.36000061   1.61000001  49.73999786
C    10.29000092   1.86000001  50.65000153
C     8.98999977   1.53999996  50.34000015
C     8.67999935   0.85000002  49.13999939
C     9.68999958   0.59000003  48.25000000
C    11.03999996   0.97999996  48.48999786
C    15.18000031   1.69000006  49.29000092
C    15.88000107   1.23000002  48.13999939
C    17.26000023   1.04999995  48.15999985
C     7.32999992   0.23000000  48.86000061
H     6.69597530   0.86402464  48.24022293
H    11.89000034   0.16000001  46.65999985
H    12.89000034   2.20000005  51.05999756
H    10.65000057   2.20000005  51.60999680
H     8.10000038   1.58999991  50.97000122
H     9.59000015   0.04000000  47.31999969
H    17.79000092   0.73000002  47.27000427
H     6.80999994   0.22000000  49.82999802
H     7.36000013  -0.82999998  48.56999969
