96

S    17.45000076   1.88999999  57.63000107
C    20.15000153   2.09999990  56.98999786
C    18.86999893   1.80000007  56.58000183
C    18.51000023   1.36000013  55.26000214
C    19.55000114   0.99000001  54.43000031
C    20.88000107   1.35000002  54.78000259
C    21.94999886   1.08000004  53.88000107
C    23.22000122   1.48000002  54.22999954
C    23.50000000   2.17999983  55.44000244
C    22.46000099   2.53999996  56.25999832
C    21.12999916   2.11999989  55.97000122
C    17.06999969   1.33000004  55.05000305
C    16.36999893   1.63000000  56.24000168
C    14.98999977   1.66999996  56.33999634
C    24.93000031   2.61000013  55.68000031
H    25.33680153   2.22460985  56.61492538
H    20.36999893   2.39999986  58.01000214
H    19.34999847   0.55000001  53.46000290
H    21.80999947   0.64000005  52.90000153
H    24.04999924   1.33000004  53.54999924
H    22.63999939   2.87999988  57.28000259
H    14.46000004   1.86000001  57.27000427
H    25.52000046   2.30999994  54.79999924
H    25.03000069   3.70000005  55.73999786
S    13.82999992   0.50000000  52.72999573
C    11.11999989   0.48000002  53.41999817
C    12.42000008   0.75000000  53.76999664
C    12.82999992   1.19000006  55.06999969
C    11.80999947   1.28999996  55.98999786
C    10.44999981   1.04999995  55.68999863
C     9.40999985   1.02999997  56.65999985
C     8.10000038   0.75000000  56.37000275
C     7.72000027   0.44000000  55.04000092
C     8.69999981   0.35999998  54.06999969
C    10.06999969   0.64000005  54.36000061
C    14.27999973   1.36000013  55.17000198
C    14.96000099   1.04999995  53.96999741
C    16.35000038   1.00999999  53.88999939
C     6.26999950   0.14999999  54.75000000
H     5.81624603   0.70301265  53.92757416
H    10.86999989   0.09000000  52.43999863
H    12.18000031   1.38000000  57.01000214
H     9.73999977   1.26999998  57.67000198
H     7.37999964   0.71000004  57.18999863
H     8.52999973   0.12000000  53.02999878
H    16.95000076   0.69000000  53.04000092
H     5.64000034   0.29999998  55.63000107
H     6.17999983  -0.92000002  54.52999878
S    14.34000015  -1.30999994  50.00999832
C    11.72999954  -2.13000011  50.65000153
C    13.09000015  -2.23000002  50.86999893
C    13.61999989  -2.89000010  52.02000046
C    12.75000000  -3.44000006  52.95000076
C    11.35000038  -3.32999992  52.77999878
C    10.44000053  -4.00999975  53.63999939
C     9.09000015  -4.03999996  53.37999725
C     8.57999992  -3.35000014  52.25000000
C     9.43000031  -2.66000009  51.42000198
C    10.84000015  -2.69000006  51.59999847
C    15.03000069  -2.59999990  52.23999786
C    15.54999924  -1.76999998  51.22000122
C    16.90000153  -1.43999994  51.18000031
C     7.11999989  -3.56999993  51.91999817
H     6.66450930  -3.25685000  50.98054886
H    11.25000000  -1.44999993  49.94999695
H    13.02000046  -4.01999998  53.82999802
H    10.90999985  -4.39000034  54.54999924
H     8.53999996  -4.72000027  54.02000046
H     8.97000027  -2.11999989  50.59000015
H    17.13000107  -0.81000000  50.31999969
H     6.94000006  -4.63000011  52.15000153
H     6.52999973  -2.94000006  52.60000229
S    18.37000084  -2.92000008  54.54999924
C    21.02999878  -2.47000003  53.76999664
C    19.69000053  -2.27999997  53.54999924
C    19.19999886  -1.76999998  52.30999756
C    20.10999870  -1.36000013  51.35000229
C    21.50000000  -1.51999998  51.55000305
C    22.50000000  -0.88000000  50.76000214
C    23.81999969  -0.87000000  51.14999771
C    24.25000000  -1.46000004  52.36999893
C    23.34000015  -2.10999990  53.16999817
C    21.97000122  -2.09000015  52.77999878
C    17.75000000  -1.80000007  52.23999786
C    17.15999985  -2.50999975  53.30999756
C    15.81999969  -2.87999988  53.36000061
C    25.73999786  -1.54999995  52.58999634
H    26.08061600  -1.34421086  53.60475159
H    21.34000015  -2.79999995  54.75999832
H    19.81999969  -0.97000003  50.38000107
H    22.23999977  -0.44000000  49.79999924
H    24.60000038  -0.68000007  50.40999985
H    23.43000031  -2.46000004  54.20000076
H    15.46000004  -3.30999994  54.29000092
H    26.18000031  -0.81000000  51.90999985
H    26.15999985  -2.52999997  52.32999802
