96

S    17.68000031   1.95999992  57.68000031
C    20.35000038   2.16000009  56.88000107
C    19.04999924   1.80999994  56.56000137
C    18.68000031   1.47000003  55.21999741
C    19.67000008   1.19000006  54.29999924
C    21.02999878   1.38999999  54.65999985
C    22.13999939   1.02999997  53.85000229
C    23.45999908   1.15999997  54.20000076
C    23.78000069   1.89999998  55.37000275
C    22.75000000   2.25000000  56.20999908
C    21.38000107   1.99000001  55.91999817
C    17.23999977   1.29999995  55.14999771
C    16.55999947   1.59999990  56.35000229
C    15.17000008   1.62000000  56.45999908
C    25.19000053   2.25999999  55.77999878
H    25.62535667   1.54630077  56.47942734
H    20.59000015   2.48000002  57.88999939
H    19.48999977   0.65999997  53.36000061
H    21.81999969   0.61000001  52.90000153
H    24.20000076   0.71000004  53.54999924
H    22.98999977   2.70000005  57.16999817
H    14.72000027   2.01999998  57.36999893
H    25.86999893   2.09000015  54.93000031
H    25.25000000   3.30999994  56.07999802
S    14.04000092   0.31000000  52.85999680
C    11.30000019   0.46000001  53.43999863
C    12.60000038   0.71000004  53.81000137
C    12.98999977   1.19999993  55.08999634
C    11.98999977   1.65999997  55.93000031
C    10.65999985   1.26999998  55.63999939
C     9.67000008   1.53999996  56.62000275
C     8.36000061   1.22000003  56.32999802
C     7.99000025   0.45000002  55.20000076
C     8.93000031   0.23000000  54.20999908
C    10.26999950   0.64999998  54.40000153
C    14.42999935   1.19000006  55.34999847
C    15.11999989   0.73000002  54.20000076
C    16.50000000   0.78000003  54.08000183
C     6.60000038  -0.09000000  54.95999908
H     6.23048878   0.30793512  54.01490021
H    11.03999996  -0.03000000  52.50000000
H    12.23000050   2.11999989  56.88999939
H    10.03999901   1.81999993  57.60000229
H     7.53999996   1.43000007  57.02000046
H     8.59000015  -0.27000001  53.30999756
H    17.01000023   0.41999999  53.18000031
H     5.96000004   0.27000001  55.77999878
H     6.70000029  -1.18000007  54.91000366
S    17.75000000   2.53999996  51.73999786
C    20.45999908   2.33999991  51.04999924
C    19.13999939   2.09000015  50.72999954
C    18.81999969   1.49000001  49.47000122
C    19.78000069   1.19000006  48.53000259
C    21.09999847   1.63000000  48.77999878
C    22.15999985   1.50999999  47.84000015
C    23.45999908   1.82999992  48.18999863
C    23.74000168   2.56999993  49.36999893
C    22.77000046   2.68000007  50.33000183
C    21.45999908   2.20000005  50.06000137
C    17.36999893   1.36000013  49.34999847
C    16.69000053   1.84000003  50.50000000
C    15.31000042   2.01999998  50.40999985
C    25.13000107   2.94999981  49.82999802
H    25.47860146   2.25991201  50.59834290
H    20.62000084   2.80999994  52.02000046
H    19.45999908   0.75000000  47.58999634
H    21.97000122   1.18000007  46.81999969
H    24.23000145   1.63000000  47.45999908
H    22.85000038   3.24000001  51.26999664
H    14.80999947   2.46000004  51.26999664
H    25.79999924   2.89999986  48.96999741
H    25.15999985   3.98000002  50.21999741
S    14.14999962   0.67000002  46.91999817
C    11.46000004   0.68000007  47.57999802
C    12.75000000   0.99000001  47.95999908
C    13.09999943   1.50000000  49.25000000
C    12.06999969   1.63000000  50.17000198
C    10.71000004   1.51999998  49.80999756
C     9.61999989   1.77999997  50.68000031
C     8.31999969   1.66999996  50.26000214
C     8.01999950   1.05999994  49.01000214
C     9.06999969   0.69999999  48.18999863
C    10.43000031   0.93000001  48.52000427
C    14.55000019   1.56000006  49.33000183
C    15.29000092   1.11000001  48.20999908
C    16.68000031   1.03999996  48.18000031
C     6.61000013   0.59000003  48.74000168
H     6.11633968   1.08366036  47.90292358
H    11.17000008   0.45000002  46.56000137
H    12.23000050   2.00000000  51.18000031
H     9.78999996   2.01999998  51.72999954
H     7.50000000   1.95999992  50.90999985
H     8.88000011   0.23000000  47.22999954
H    17.12000084   0.50000000  47.34000397
H     6.15999985   1.00999999  49.65000153
H     6.54999971  -0.50000000  48.61999893
