96

S    17.20000076   2.25000000  57.60000229
C    19.89999962   2.27999997  56.93999863
C    18.60999870   1.95999992  56.56999969
C    18.19000053   1.46000004  55.30000305
C    19.19000053   1.28999996  54.34999847
C    20.52000046   1.65000010  54.65999985
C    21.50000000   1.62000000  53.62999725
C    22.80999947   1.94000006  53.90999603
C    23.22000122   2.33999991  55.20999908
C    22.26000023   2.49000001  56.18999863
C    20.88999939   2.23000002  55.91999817
C    16.75000000   1.33000004  55.18000031
C    16.04999924   1.76999998  56.32999802
C    14.67000008   1.90999997  56.38999939
C    24.63999939   2.75999999  55.50000000
H    25.01686478   2.08448625  56.26795197
H    20.15000153   2.68000007  57.91999817
H    18.98999977   1.02999997  53.31999969
H    21.25999832   1.39999998  52.58999634
H    23.54999924   1.95999992  53.11999893
H    22.53999901   2.84999990  57.18000031
H    14.17000008   2.23000002  57.29999924
H    25.20999908   2.61999989  54.56999969
H    24.65999985   3.81000018  55.79999924
S    13.59000015   0.82000005  52.68000031
C    10.88000107   0.69999999  53.36000061
C    12.17000008   0.99000001  53.73000336
C    12.51999950   1.53999996  55.00000000
C    11.54999924   1.77999997  55.96000290
C    10.19999981   1.52999997  55.63999939
C     9.10000038   1.72999990  56.52000046
C     7.82000017   1.33000004  56.19999695
C     7.55000019   0.76999998  54.93000031
C     8.57999992   0.51999998  54.06000137
C     9.89999962   0.97000003  54.34999847
C    13.96000004   1.62000000  55.21999741
C    14.63999939   1.29999995  54.02000046
C    16.02000046   1.10000002  54.01000214
C     6.15000010   0.31000000  54.59000015
H     5.76670742   0.81395817  53.70275116
H    10.67000008   0.28999999  52.36999893
H    11.71000004   2.22000003  56.93999863
H     9.35000038   2.09000015  57.50999832
H     6.98999977   1.47000003  56.88000107
H     8.50000000  -0.05000000  53.13999939
H    16.65999985   0.76999998  53.20000076
H     5.51000023   0.56999999  55.44000244
H     6.11999989  -0.78000003  54.54000092
S    17.65999985   2.70000005  51.40999603
C    20.31999969   2.89999986  50.70999908
C    19.06999969   2.46000004  50.37000275
C    18.72999954   1.87999988  49.09999847
C    19.76000023   1.67999995  48.18999863
C    21.09000015   2.04999995  48.47999954
C    22.14999962   2.06999993  47.52999878
C    23.45000076   2.37000012  47.88999939
C    23.72999954   2.63999987  49.25000000
C    22.70999908   2.82999992  50.14999771
C    21.35999870   2.57999992  49.79000092
C    17.29999924   1.87000012  48.82999802
C    16.64999962   2.38000011  49.99000168
C    15.27999973   2.61000013  49.94999695
C    25.10999870   3.05999994  49.69999695
H    25.61628151   2.33266592  50.33463287
H    20.43000031   3.49000001  51.62000275
H    19.55999947   1.57000005  47.12999725
H    22.00000000   1.43999994  46.65999985
H    24.25000000   2.10999990  47.21000290
H    22.95999908   3.16000009  51.16000366
H    14.75999928   2.80999994  50.87999725
H    25.72000122   3.24000001  48.80000305
H    25.07999802   4.03999996  50.20999908
S    14.01000023   1.21000004  46.47999573
C    11.39000034   1.13999999  47.36999893
C    12.68000031   1.58000004  47.58999634
C    13.09000015   2.13000011  48.85000229
C    12.10999966   2.27999997  49.80999756
C    10.75000000   2.03999996  49.54000092
C     9.81000042   2.16000009  50.61000061
C     8.47999954   1.87000012  50.40000153
C     8.05999947   1.38000000  49.13000107
C     8.97999954   1.16999996  48.11999893
C    10.36000061   1.47000003  48.27999878
C    14.53999996   2.30999994  48.80000305
C    15.19999981   1.80000007  47.65999603
C    16.56999969   1.62000000  47.65999603
C     6.58999968   1.11000001  48.89999771
H     6.16184425   1.58097100  48.01514053
H    11.18000031   0.64000005  46.43000031
H    12.44999981   2.69000006  50.76000214
H    10.19000053   2.39999986  51.59999847
H     7.76999998   2.16000009  51.16000366
H     8.67999935   0.86000001  47.11999893
H    17.05000114   1.16999996  46.79999924
H     6.07999992   1.54999995  49.77000427
H     6.38999987   0.03000000  48.83999634
