96

S    17.64000130   2.33999991  57.29999924
C    20.35000038   2.42000008  56.59000015
C    19.05999947   2.05999994  56.27999878
C    18.70000076   1.48000002  55.01999664
C    19.76000023   1.35000002  54.13999939
C    21.11999893   1.67999995  54.38000107
C    22.20000076   1.56000006  53.46000290
C    23.43000031   1.99000001  53.89999771
C    23.75000000   2.57999992  55.14999771
C    22.70999908   2.70000005  56.04000092
C    21.40999985   2.24000001  55.66999817
C    17.27000046   1.26999998  54.89999771
C    16.56999969   1.58000004  56.10000229
C    15.19999981   1.77999997  56.16000366
C    25.19000053   2.86000013  55.52000046
H    25.60437202   2.20271897  56.28444672
H    20.48000145   2.93000007  57.55000305
H    19.59000015   0.96000004  53.13999939
H    22.07999992   1.11000001  52.48000336
H    24.27000046   1.85000002  53.22000122
H    22.80999947   3.03999996  57.06999969
H    14.78000069   2.13000011  57.09999847
H    25.81999969   2.92000008  54.61999893
H    25.06999969   3.88999987  55.90000153
S    14.02999973   0.48999998  52.55000305
C    11.31999969   0.55000001  53.13000107
C    12.60000038   0.83999997  53.54000092
C    13.00000000   1.33000004  54.81999969
C    11.90999985   1.54999995  55.63999939
C    10.55999947   1.30999994  55.30000305
C     9.52999973   1.42000008  56.26999664
C     8.23999977   1.03999996  55.97000122
C     7.92000008   0.73000002  54.62999725
C     8.86999989   0.59999996  53.63999939
C    10.21999931   0.88999999  53.95999908
C    14.44000053   1.46000004  55.02999878
C    15.11000061   1.01999998  53.86000061
C    16.48999977   0.97000003  53.77999878
C     6.50000000   0.25999999  54.38999939
H     6.03052521   0.90019292  53.64310837
H    10.98999977  -0.00000000  52.25000000
H    12.15999985   1.81999993  56.66999817
H     9.89000034   1.69000006  57.25999832
H     7.46000004   1.08000004  56.72000122
H     8.67000008   0.20999999  52.63999939
H    16.90999985   0.75999999  52.80000305
H     5.98000002   0.19999999  55.35999680
H     6.44000006  -0.79000002  54.09000015
S    13.90999985  -1.74000001  49.64000320
C    11.18999958  -2.09000015  50.38000107
C    12.53000069  -2.24000001  50.63000107
C    13.02999973  -2.69000006  51.90000153
C    12.13000107  -3.00000000  52.90999985
C    10.73999977  -2.80999994  52.70000076
C     9.81000042  -3.51999998  53.50000000
C     8.47999954  -3.58000016  53.15999985
C     7.96000004  -2.87999988  52.02999878
C     8.86999989  -2.30999994  51.17000198
C    10.26999950  -2.30999994  51.44000244
C    14.47000027  -2.54999995  52.06999969
C    15.10000038  -2.00000000  50.93000031
C    16.39000130  -1.49000001  50.84000015
C     6.47000027  -2.75000000  51.84999847
H     6.05858612  -3.23234701  50.96332932
H    10.78999996  -1.92000008  49.38000107
H    12.38000011  -3.70000005  53.69999695
H    10.18000031  -4.28000021  54.18000031
H     7.85000038  -4.18000031  53.81000137
H     8.55000019  -2.09999990  50.14999771
H    16.84999847  -1.34000003  49.86000061
H     6.01000023  -3.33999991  52.65999603
H     6.06999969  -1.74000001  51.97999954
S    17.75000000  -2.63999987  54.36999893
C    20.43999863  -2.22000003  53.75000000
C    19.11999893  -2.14000010  53.34999847
C    18.65999985  -1.70000005  52.06999969
C    19.63000107  -1.24000001  51.19999695
C    21.00000000  -1.33000004  51.52999878
C    22.10000038  -1.01999998  50.68000031
C    23.42000008  -1.19000006  51.02000427
C    23.78999901  -1.67999995  52.29999924
C    22.78000069  -1.98000002  53.18999863
C    21.42000008  -1.77999997  52.83000183
C    17.20999908  -1.72999990  51.93999863
C    16.57999992  -2.31999993  53.06999969
C    15.26000023  -2.73999977  53.20000076
C    25.20999908  -2.14000010  52.50000000
H    25.75794220  -1.58494186  53.26142502
H    20.68000031  -2.73000002  54.68000031
H    19.20999908  -0.92000002  50.25000000
H    21.91999817  -0.54000002  49.72000122
H    24.20000076  -1.00999999  50.27999878
H    22.92000008  -2.25000000  54.22999954
H    14.98000050  -3.09999990  54.18000031
H    25.69999886  -2.02999997  51.52999878
H    25.20000076  -3.22000003  52.72999573
