96

S    17.13999939   2.45000005  57.63999939
C    19.85999870   2.69000006  56.91999817
C    18.56999969   2.29999995  56.59999847
C    18.27999878   1.54999995  55.41999817
C    19.25000000   1.29999995  54.47000122
C    20.59000015   1.63000000  54.79000092
C    21.61999893   1.47000003  53.81999969
C    22.84000015   2.07999992  54.01000214
C    23.15999985   2.61999989  55.27999878
C    22.20999908   2.79000020  56.25999832
C    20.88999939   2.30999994  56.02000427
C    16.84000015   1.36999989  55.27000046
C    16.07999992   1.72999990  56.40999603
C    14.70000076   1.82999992  56.44000244
C    24.56999969   3.12000012  55.52000046
H    25.15725136   2.51126242  56.20751190
H    20.10000038   3.25000000  57.81999969
H    19.13999939   1.10000002  53.40999985
H    21.35999870   1.16999996  52.81000137
H    23.50000000   2.10999990  53.15000153
H    22.60000038   3.30999994  57.12999725
H    14.15999985   2.15000010  57.32999802
H    24.97999954   3.35999990  54.52999878
H    24.54999924   4.18000031  55.81999969
S    13.63999939   0.79000002  52.77000046
C    10.95999908   0.79999995  53.34999847
C    12.23000050   1.00999999  53.82999802
C    12.55000019   1.38999999  55.17000198
C    11.50000000   1.58999991  56.04999924
C    10.21000004   1.13000000  55.70000076
C     9.15000057   1.12000000  56.65000153
C     7.85000038   0.79000002  56.31999969
C     7.57999992   0.41000003  54.99000168
C     8.59000015   0.41000003  54.05000305
C     9.94000053   0.75999999  54.33000183
C    14.00000000   1.43999994  55.28999710
C    14.73999977   1.10000002  54.13000107
C    16.11999893   1.04999995  54.10999680
C     6.15999985   0.08000001  54.55999756
H     5.74623060   0.72205597  53.78239822
H    10.77000046   0.29999998  52.39999771
H    11.67000008   1.85000002  57.09000015
H     9.27999973   1.30999994  57.70999908
H     7.11999989   0.75999999  57.11999893
H     8.36999989   0.01000000  53.06999969
H    16.63999939   0.87000000  53.16999817
H     5.51000023   0.03000000  55.44000244
H     6.17999983  -0.93999994  54.13000107
S    17.78000069   2.56999993  51.52000046
C    20.40999985   2.86000013  50.77000046
C    19.19000053   2.28999996  50.47999954
C    18.85000038   1.75000000  49.20000076
C    19.80999947   1.67999995  48.20000076
C    21.09000015   2.24000001  48.43000031
C    22.15999985   2.01999998  47.52999878
C    23.38999939   2.59999990  47.72999573
C    23.68000031   3.19000006  48.99000168
C    22.67000008   3.37000012  49.89999771
C    21.37000084   2.82000017  49.72000122
C    17.40999985   1.76999998  49.00000000
C    16.69999886   2.17999983  50.15999603
C    15.32999992   2.38999987  50.18000031
C    25.06999969   3.65000010  49.36999893
H    25.48966408   2.94581890  50.08840942
H    20.55000114   3.35999990  51.72000122
H    19.56999969   1.25000000  47.22999954
H    21.94999886   1.52999997  46.56999969
H    24.14999962   2.33999991  47.00000000
H    22.76000023   3.77999997  50.90000153
H    14.78999996   2.63999987  51.09000397
H    25.66999817   3.51000023  48.46000290
H    25.13999939   4.67999983  49.72999954
S    14.29999924   1.26999998  46.51000214
C    11.54000092   1.18000007  47.06999969
C    12.81999969   1.48000002  47.48000336
C    13.15000057   1.87999988  48.81000137
C    12.09000015   2.04999995  49.68999863
C    10.77000046   1.65000010  49.36999893
C     9.68999958   1.85000002  50.27999878
C     8.39999962   1.54999995  49.91000366
C     8.15999985   1.00999999  48.61999893
C     9.18000031   0.76999998  47.74000168
C    10.48999977   1.25000000  48.02000046
C    14.57999992   2.02999997  49.05000305
C    15.31999969   1.63000000  47.90999985
C    16.70999908   1.56000006  47.81000137
C     6.75000000   0.56000000  48.31999969
H     6.24263144   1.13882899  47.54822540
H    11.35000038   0.83999997  46.05999756
H    12.31999969   2.37000012  50.70000076
H     9.89999962   2.25000000  51.26999664
H     7.57999992   1.72000003  50.59999847
H     8.89999962   0.32000002  46.77999878
H    17.20999908   1.14999998  46.93999863
H     6.17999983   0.45000002  49.26000214
H     6.80000019  -0.48999998  47.98999786
