96

S    17.75000000   1.66999996  57.60000229
C    20.48000145   1.85000002  56.84000015
C    19.19000053   1.43999994  56.59000015
C    18.85000038   1.03999996  55.26000214
C    19.84000015   0.90000004  54.29999924
C    21.18000031   1.24000001  54.61000061
C    22.20999908   1.36999989  53.61999893
C    23.51000023   1.71000004  53.88000107
C    23.87000084   2.10999990  55.19000244
C    22.85000038   2.17999983  56.11999893
C    21.54999924   1.63000000  55.93999863
C    17.40999985   0.93000001  55.07999802
C    16.69000053   1.44999993  56.18999863
C    15.31999969   1.65000010  56.24000168
C    25.22999954   2.66000009  55.58000183
H    25.62208939   2.21087885  56.49250031
H    20.62000084   2.38000011  57.77999878
H    19.57999992   0.69000000  53.27000046
H    21.90999985   1.15999997  52.60000229
H    24.23000145   1.59999990  53.06999969
H    23.00000000   2.73000002  57.04000092
H    14.89999962   1.89999998  57.21000290
H    26.01000023   2.56999993  54.80999756
H    25.15999985   3.74000025  55.70999908
S    14.22000027   0.56000000  52.56999969
C    11.47999954   0.44000000  53.20000076
C    12.76999950   0.79000002  53.55999756
C    13.15000057   1.26999998  54.85000229
C    12.13000107   1.47000003  55.77000046
C    10.80999947   1.04999995  55.47999954
C     9.88000011   1.01999998  56.55000305
C     8.55000019   0.71000004  56.37000275
C     8.15999985   0.34999999  55.05000305
C     9.09000015   0.20999999  54.05000305
C    10.46000004   0.56999999  54.16999817
C    14.59000015   1.33000004  55.07999802
C    15.29999924   0.93000001  53.93000031
C    16.65999985   0.62000000  53.94000244
C     6.71999979  -0.06000000  54.85000229
H     6.24593019   0.30085903  53.93723679
H    11.25000000   0.02000000  52.22999954
H    12.35000038   1.87000012  56.76000214
H    10.17000008   1.36000013  57.54000092
H     7.85000038   0.56000000  57.18999863
H     8.71999931  -0.09999999  53.06999969
H    17.15999985   0.32999998  53.02999878
H     6.07999992   0.39999998  55.61000061
H     6.72999954  -1.14999998  54.93000031
S    14.27000046  -1.58000004  49.79999924
C    11.56999969  -1.95999992  50.44000244
C    12.89000034  -2.09000015  50.79000092
C    13.26000023  -2.71000004  52.02999878
C    12.22000027  -3.14000010  52.83000183
C    10.85000038  -2.96999979  52.52999878
C     9.77999973  -3.42000008  53.34999847
C     8.47000027  -3.21000004  52.97999954
C     8.19000053  -2.53999996  51.76000214
C     9.15999985  -2.19000006  50.84000015
C    10.50000000  -2.32999992  51.29000092
C    14.70000076  -2.66000009  52.22999954
C    15.34000015  -2.00000000  51.14999771
C    16.72999954  -1.86000001  51.10000229
C     6.74000025  -2.44000006  51.36000061
H     6.41942549  -3.37322760  50.89694595
H    11.40999985  -1.50999999  49.45999908
H    12.41000080  -3.54999995  53.81999969
H    10.08999920  -4.03999996  54.18000031
H     7.72000027  -3.81000018  53.50000000
H     8.90999985  -1.79000008  49.86999893
H    17.19000053  -1.21000004  50.37000275
H     6.11999989  -2.16000009  52.21000290
H     6.65999985  -1.58999991  50.66999817
S    17.89999962  -3.24000001  54.65999985
C    20.62999916  -2.82999992  54.02000046
C    19.29999924  -2.69000006  53.70999908
C    18.82999992  -2.05999994  52.50999832
C    19.73999977  -1.50000000  51.63000107
C    21.11000061  -1.50000000  51.97999954
C    22.10000038  -1.00000000  51.07999802
C    23.45000076  -1.00000000  51.37000275
C    23.87000084  -1.72000003  52.51999664
C    22.95000076  -2.31999993  53.34999847
C    21.54999924  -2.16000009  53.16999817
C    17.42000008  -2.27999997  52.25000000
C    16.77999878  -2.98000002  53.29999924
C    15.43000031  -3.28999996  53.25000000
C    25.34000015  -1.69000006  52.88999939
H    25.56737328  -1.66868377  53.95580673
H    21.02999878  -3.53999996  54.73999786
H    19.47000122  -1.14999998  50.63999939
H    21.73999977  -0.59000003  50.14999771
H    24.09000015  -0.50000000  50.65999985
H    23.29999924  -2.89000010  54.20999908
H    14.92000008  -3.84000015  54.02999878
H    25.68000031  -0.81000000  52.35000229
H    25.79999924  -2.59000015  52.45999908
