96

S    17.40999985   1.86000001  57.67000198
C    20.05000114   1.75999999  57.05999756
C    18.78000069   1.44999993  56.62000275
C    18.39999962   1.14999998  55.27999878
C    19.42000008   1.13000000  54.34000015
C    20.75000000   1.35000002  54.75999832
C    21.78999901   1.30999994  53.79000092
C    23.08000183   1.67999995  54.09999847
C    23.35000038   2.14000010  55.41999817
C    22.42000198   2.13000011  56.43000031
C    21.09000015   1.75999999  56.10000229
C    16.95000076   1.08000004  55.17000198
C    16.28000069   1.42000008  56.37000275
C    14.88999939   1.52999997  56.49000168
C    24.79000092   2.43000007  55.76000214
H    25.09537125   1.87607384  56.64770508
H    20.12000084   2.13000011  58.08000183
H    19.22999954   0.90999997  53.29000092
H    21.50000000   1.19999993  52.75000000
H    23.82999802   1.63000000  53.31999969
H    22.69000053   2.30999994  57.47000122
H    14.27999973   2.01999998  57.22999954
H    25.55999947   2.26999998  54.99000168
H    24.82000160   3.50000000  56.02000427
S    13.71999931   0.39999998  52.84999847
C    11.14999962  -0.19999999  53.68000031
C    12.35999966   0.39000002  53.99000168
C    12.63000011   1.00000000  55.25000000
C    11.54999924   1.22000003  56.09000397
C    10.21999931   0.83999997  55.79000092
C     9.06999969   1.29999995  56.47999573
C     7.82000017   1.02999997  55.97999954
C     7.64999962   0.19999999  54.84000397
C     8.76999950  -0.25000000  54.18000031
C    10.08999920   0.07000000  54.58000183
C    14.06999969   1.21000004  55.40999985
C    14.75999928   0.83999997  54.22000122
C    16.13999939   0.75000000  54.08000183
C     6.23000050  -0.11000000  54.40999985
H     5.87558031   0.52086741  53.59483719
H    10.95999908  -0.76999998  52.77000046
H    11.84000015   1.57000005  57.06999969
H     9.30999947   1.92000008  57.34000397
H     6.91999960   1.47000003  56.38999939
H     8.56999969  -0.71999997  53.22000122
H    16.46999931   0.43000001  53.09999847
H     5.52999973   0.02000000  55.25000000
H     6.23000050  -1.16999996  54.13000107
S    14.61999989  -1.51999998  49.93000031
C    12.02999973  -2.39999986  50.44000244
C    13.36999989  -2.46000004  50.77000046
C    13.82999992  -3.08999991  51.97000122
C    12.89000034  -3.65999985  52.80000305
C    11.50000000  -3.52999973  52.51999664
C    10.51000023  -3.96000004  53.44999695
C     9.17000008  -3.75999975  53.22000122
C     8.76999950  -3.05999994  52.04999924
C     9.64999962  -2.66999984  51.07999802
C    11.03999996  -2.84999990  51.35000229
C    15.21000004  -2.66999984  52.19999695
C    15.80000019  -1.87000012  51.19999695
C    17.13000107  -1.46000004  51.25000000
C     7.28999996  -2.79000020  51.86000061
H     6.84735441  -3.33259773  51.02468491
H    11.71000004  -2.14000010  49.43000031
H    13.09000015  -3.95000005  53.81999969
H    10.88000107  -4.46000004  54.34000015
H     8.43999958  -4.19000006  53.90999603
H     9.35999966  -2.11999989  50.19000244
H    17.61000061  -1.04999995  50.37000275
H     6.80999994  -2.96999979  52.83000183
H     7.18999958  -1.72000003  51.68000031
S    18.32999992  -2.92000008  54.78000259
C    21.02999878  -2.66000009  54.09000015
C    19.70999908  -2.40999985  53.79000092
C    19.32999992  -1.80000007  52.55000305
C    20.32999992  -1.26999998  51.76000214
C    21.70000076  -1.36000013  52.11999893
C    22.75000000  -0.82999998  51.31999969
C    24.05999947  -0.94999999  51.70999908
C    24.37999916  -1.75999999  52.83000183
C    23.43000031  -2.37000012  53.61000061
C    22.06999969  -2.11999989  53.27999878
C    17.88999939  -1.87999988  52.35000229
C    17.22999954  -2.50000000  53.44999695
C    15.90999985  -2.93000007  53.39000320
C    25.82999992  -2.15000010  53.02000046
H    26.26339149  -1.76634157  53.94362259
H    21.15999985  -3.19999981  55.01999664
H    20.13999939  -0.69000000  50.86000061
H    22.43000031  -0.34999999  50.38999939
H    24.86000061  -0.59000003  51.07999802
H    23.74000168  -3.07999992  54.36999893
H    15.36999893  -3.42000008  54.20000076
H    26.40999985  -1.80999994  52.15000153
H    25.93000031  -3.23000002  53.11000061
