96

S    17.35000038   1.88999999  57.50999832
C    20.05000114   1.71000004  56.86999893
C    18.75000000   1.47000003  56.50000000
C    18.38999939   0.85000002  55.27000046
C    19.42000008   0.45000002  54.43999863
C    20.73999786   0.87000000  54.72000122
C    21.81999969   0.56000000  53.83999634
C    23.11000061   0.94999999  54.12000275
C    23.45999908   1.79000008  55.20999908
C    22.44999886   1.98000002  56.11999893
C    21.09999847   1.56000006  55.93000031
C    16.94000053   0.76999998  55.17000198
C    16.21999931   1.30999994  56.26999664
C    14.85000038   1.52999997  56.25000000
C    24.87999916   2.17999983  55.54000092
H    25.35012627   1.41070223  56.15258789
H    20.28000069   2.04999995  57.88000107
H    19.09000015  -0.14000000  53.59000397
H    21.61999893   0.19000000  52.83000183
H    23.84000015   0.69999999  53.36000061
H    22.72000122   2.43000007  57.06999969
H    14.30999947   1.93000007  57.11000061
H    25.40999985   2.26999998  54.59000015
H    24.84999847   3.19999981  55.93999863
S    13.76999950   0.16000001  52.67000198
C    11.05000019   0.34000003  53.37999725
C    12.36999989   0.55000001  53.68999863
C    12.67000008   1.08000004  54.98000336
C    11.67000008   1.36000013  55.89000320
C    10.32999992   0.97999996  55.63999939
C     9.30000019   1.11000001  56.62000275
C     8.01999950   0.88000000  56.19999695
C     7.65999985   0.29999998  54.94999695
C     8.67000008   0.07000000  54.03999710
C    10.01999950   0.41999999  54.34999847
C    14.11999893   1.10000002  55.13000107
C    14.84000015   0.56000000  54.03999710
C    16.21000099   0.32000002  54.06000137
C     6.25999975  -0.17000002  54.65999985
H     5.81880045   0.37794167  53.82741165
H    10.85999966  -0.14000000  52.42000198
H    12.02000046   1.75999999  56.84000015
H     9.47000027   1.39999998  57.65999603
H     7.16000032   0.94999999  56.84999847
H     8.34999943  -0.23000000  53.04999924
H    16.72999954   0.19000000  53.11999893
H     5.60999966  -0.20999999  55.54000092
H     6.30000019  -1.22000003  54.34999847
S    17.87999916   2.24000001  51.93999863
C    20.59999847   2.19000006  51.24000168
C    19.29999924   1.86000001  50.93999863
C    18.90999985   1.35000002  49.65999985
C    19.88000107   1.10000002  48.70999908
C    21.24000168   1.36999989  48.96999741
C    22.26000023   1.25999999  47.98999786
C    23.57000160   1.54999995  48.27000046
C    23.88999939   2.15000010  49.52000046
C    22.92000008   2.38999987  50.45999908
C    21.56999969   1.99000001  50.22999573
C    17.46999931   1.43000007  49.45000076
C    16.77000046   1.79000008  50.63000107
C    15.38000011   1.82999992  50.63999939
C    25.34000015   2.56000018  49.69999695
H    25.82309532   1.82115006  50.33938599
H    20.86000061   2.64999986  52.18999863
H    19.63999939   0.79000002  47.69000244
H    21.98999786   1.05999994  46.95000076
H    24.28999901   1.49000001  47.45999908
H    22.98000145   2.98000002  51.37000275
H    14.88000011   2.20000005  51.52999878
H    25.81000137   2.73999977  48.73000336
H    25.38999939   3.58999991  50.07999802
S    14.30999947   0.73000002  46.97999954
C    11.63000011   0.64999998  47.67000198
C    12.89000034   1.08999991  47.98999786
C    13.20000076   1.65999997  49.27000046
C    12.18999958   1.87000012  50.18000031
C    10.88000107   1.50000000  49.78000259
C     9.81000042   1.50000000  50.72000122
C     8.55000019   1.08000004  50.35999680
C     8.26000023   0.54000002  49.06999969
C     9.23999977   0.46999997  48.11000061
C    10.52999973   0.87000000  48.54000092
C    14.65000057   1.64000010  49.45999908
C    15.36999893   1.18000007  48.33000183
C    16.75000000   1.12000000  48.29000092
C     6.86999989   0.07000000  48.70999908
H     6.32688856   0.72745103  48.03111267
H    11.43000031   0.07000000  46.77000046
H    12.35000038   1.93000007  51.25999832
H     9.96999931   1.88999999  51.72000122
H     7.73999977   1.30999994  51.04000092
H     9.04999924   0.04000000  47.12999725
H    17.39999962   0.73000002  47.50999832
H     6.30000019  -0.19000000  49.61000061
H     7.00000000  -0.90999997  48.22000122
