96

S    17.42000008   1.84000003  57.69000244
C    20.13000107   2.16000009  56.93999863
C    18.85000038   1.72000003  56.65999985
C    18.55999947   1.19999993  55.35999680
C    19.55999947   1.00000000  54.41999817
C    20.88000107   1.42000008  54.72000122
C    21.94999886   1.30999994  53.79000092
C    23.26000023   1.51999998  54.15000153
C    23.51000023   2.09999990  55.41999817
C    22.50000000   2.43000007  56.27999878
C    21.18999863   1.94000006  56.02000427
C    17.13000107   0.94999999  55.20999908
C    16.38000107   1.38999999  56.31999969
C    14.98999977   1.42000008  56.44000244
C    24.89999962   2.61999989  55.70000076
H    25.31214905   2.05862689  56.53850937
H    20.32999992   2.52999997  57.94000244
H    19.29000092   0.67000002  53.41999817
H    21.73999977   0.92000002  52.80000305
H    24.10000038   1.36000013  53.47000122
H    22.55000114   2.86999989  57.28000259
H    14.63000107   1.66999996  57.43000031
H    25.45000076   2.56999993  54.75000000
H    24.77999878   3.68000007  55.93000031
S    13.86999989   0.29999998  52.84999847
C    11.18000031  -0.02000000  53.56999969
C    12.42000008   0.50000000  53.85000229
C    12.81000042   1.10000002  55.08999634
C    11.80999947   1.28000009  56.03000259
C    10.50000000   0.79000002  55.77999878
C     9.48000050   0.90999997  56.77000046
C     8.14999962   0.69999999  56.51000214
C     7.77999973   0.20999999  55.21999741
C     8.75000000   0.05000000  54.26000214
C    10.14000034   0.25999999  54.50000000
C    14.25000000   1.15999997  55.27999878
C    14.98999977   0.65999997  54.16999817
C    16.36000061   0.43000001  54.15999985
C     6.39999962  -0.34000003  54.93999863
H     5.88829136   0.24988639  54.17954636
H    10.95999908  -0.57999998  52.67000198
H    12.03999996   1.48000002  57.06999969
H     9.82999992   1.33000004  57.70999908
H     7.44000006   0.92000002  57.29000092
H     8.56999969  -0.38000000  53.27999878
H    16.86000061   0.01000000  53.29000092
H     5.73000002  -0.46999997  55.79999924
H     6.50000000  -1.35000002  54.52999878
S    13.86999989  -1.62000000  49.93000031
C    11.21000099  -2.20000005  50.54000092
C    12.53999901  -2.37000012  50.84000015
C    12.97000027  -3.00000000  52.04999924
C    12.02000046  -3.56999993  52.88999939
C    10.65000057  -3.33999991  52.63000107
C     9.61999989  -3.78999996  53.50999832
C     8.28999996  -3.56999993  53.26000214
C     7.90999985  -2.80999994  52.11000061
C     8.85000038  -2.32999992  51.23000336
C    10.21999931  -2.63999987  51.45000076
C    14.40999985  -2.84000015  52.18999863
C    15.03999901  -2.10999990  51.16000366
C    16.39000130  -1.76999998  51.18999863
C     6.48999977  -2.80999994  51.59999847
H     6.18496037  -3.60452199  50.91897964
H    10.85000038  -1.59999990  49.71000290
H    12.25000000  -4.05000019  53.82999802
H     9.98000050  -4.21000004  54.43999863
H     7.46000004  -4.07999992  53.75000000
H     8.61999989  -1.80999994  50.30000305
H    16.70999908  -1.01999998  50.47999954
H     5.96000004  -3.01999998  52.54000092
H     6.05999994  -1.87000012  51.24000168
S    17.64000130  -3.23000002  54.66999817
C    20.35000038  -2.57999992  54.06999969
C    19.01000023  -2.50000000  53.80000305
C    18.60000038  -2.00000000  52.51999664
C    19.55000114  -1.48000002  51.65999985
C    20.93000031  -1.43999994  51.95999908
C    21.94999886  -1.00999999  51.05999756
C    23.26999855  -1.26999998  51.33999634
C    23.61999893  -1.94999993  52.52999878
C    22.70999908  -2.29999995  53.50000000
C    21.34000015  -2.05999994  53.20000076
C    17.17000008  -2.13000011  52.29999924
C    16.52000046  -2.84999990  53.34000015
C    15.17000008  -3.17000008  53.31999969
C    25.10000038  -2.23000002  52.69000244
H    25.59081650  -1.63248539  53.45823288
H    20.65999985  -3.25999999  54.86000061
H    19.11999893  -1.07000005  50.75000000
H    21.73999977  -0.64000005  50.06000137
H    23.97999954  -0.90999997  50.59999847
H    23.00000000  -2.75000000  54.43999863
H    14.82999992  -3.81999993  54.12000275
H    25.65000153  -1.94000006  51.77999878
H    25.19000053  -3.31999993  52.77999878
