96

S    17.71999931   2.09999990  57.54000092
C    20.42000008   2.38999987  56.76000214
C    19.13999939   1.93000007  56.50000000
C    18.77000046   1.42000008  55.21999741
C    19.75000000   1.14999998  54.29000092
C    21.09000015   1.44999993  54.64000320
C    22.20000076   1.10000002  53.81999969
C    23.54000092   1.29999995  54.06999969
C    23.88999939   1.98000002  55.27000046
C    22.85000038   2.36000013  56.07999802
C    21.45999908   2.16999984  55.81999969
C    17.31999969   1.31999993  55.11000061
C    16.56999969   1.75999999  56.23000336
C    15.19000053   1.92000008  56.31000137
C    25.31999969   2.23000002  55.68999863
H    25.67382050   1.48697555  56.40472031
H    20.79999924   2.71000004  57.71999741
H    19.45999908   0.50000000  53.47000122
H    22.04999924   0.68000007  52.81999969
H    24.30999947   0.90999997  53.40999985
H    23.11000061   2.87999988  57.00000000
H    14.80999947   2.20000005  57.29000092
H    25.96999931   2.38000011  54.81999969
H    25.29000092   3.21000004  56.18000031
S    14.09999943   0.41999999  52.83000183
C    11.44000053   0.04000000  53.53000259
C    12.64999962   0.62000000  53.83999634
C    13.00000000   1.25000000  55.07999802
C    11.95000076   1.51999998  55.93999863
C    10.62999916   1.21000004  55.52999878
C     9.52999973   1.43999994  56.40999603
C     8.23000050   1.07000005  56.17000198
C     8.01000023   0.28000000  55.00999832
C     9.02999973  -0.05000000  54.15000153
C    10.36999893   0.37000000  54.38999939
C    14.42000008   1.53999996  55.20999908
C    15.17000008   1.00999999  54.12000275
C    16.54000092   0.83999997  54.05000305
C     6.65000010  -0.29999998  54.68999863
H     5.97418261   0.31179258  54.09243774
H    11.28000069  -0.51999998  52.61000061
H    12.06999969   1.79000008  56.97999954
H     9.70000076   1.87000012  57.38999939
H     7.36999989   1.36999989  56.76000214
H     8.84000015  -0.59999996  53.22999954
H    17.02000046   0.37000000  53.18999863
H     6.21000004  -0.37000000  55.68999863
H     6.65000010  -1.26999998  54.19000244
S    14.26000023  -1.51999998  49.75000000
C    11.51000023  -2.09999990  50.34000015
C    12.86000061  -2.15000010  50.63000107
C    13.35999966  -2.96000004  51.69000244
C    12.48999977  -3.38999987  52.68000031
C    11.10000038  -3.22000003  52.47000122
C    10.15999985  -3.75000000  53.40000153
C     8.78999996  -3.63999987  53.27000046
C     8.34000015  -3.12000012  52.02999878
C     9.18000031  -2.71000004  51.00999832
C    10.57999992  -2.66999984  51.25000000
C    14.78000069  -2.79999995  51.97000122
C    15.44999981  -2.07999992  50.94999695
C    16.75000000  -1.59999990  51.07999802
C     6.86999989  -2.86000013  51.77999878
H     6.40875673  -3.49154830  51.02072144
H    11.14999962  -1.64000010  49.41999817
H    12.79999924  -3.91999984  53.56999969
H    10.55999947  -4.17000008  54.31999969
H     8.07999992  -3.84999990  54.06000137
H     8.84000015  -2.15000010  50.14999771
H    17.17000008  -0.97000003  50.30000305
H     6.32999992  -3.01999998  52.72999573
H     6.69000053  -1.79000008  51.65999985
S    17.90999985  -3.45999980  54.43999863
C    20.59999847  -2.82999992  53.92000198
C    19.27000046  -2.68000007  53.60000229
C    18.93000031  -1.99000001  52.38999939
C    19.86999893  -1.29999995  51.63999939
C    21.24000168  -1.57000005  51.86000061
C    22.29000092  -1.13999999  51.00000000
C    23.61000061  -1.36000013  51.32999802
C    23.95999908  -1.97000003  52.56000137
C    22.95999908  -2.48000002  53.34999847
C    21.57999992  -2.29999995  53.04999924
C    17.50000000  -2.09000015  52.15000153
C    16.84999847  -2.84999990  53.15999985
C    15.50000000  -3.17999983  53.11000061
C    25.42000008  -2.32999992  52.76000214
H    25.86728859  -1.86851168  53.64037704
H    20.94000053  -3.35999990  54.80999756
H    19.63000107  -0.79000002  50.70999908
H    21.90000153  -0.59000003  50.14999771
H    24.34000015  -1.03999996  50.59000015
H    23.19999886  -3.00999999  54.27000046
H    15.05000019  -3.81999993  53.86000061
H    25.95999908  -2.07999992  51.84000015
H    25.43999863  -3.40999985  52.93000031
