96

S    17.00000000   1.66999996  57.88999939
C    19.69000053   1.74000001  57.14000320
C    18.39999962   1.36000013  56.84999847
C    18.06999969   0.87000000  55.54999924
C    19.05999947   0.69999999  54.59000015
C    20.39999962   1.01999998  54.88999939
C    21.50000000   0.97000003  53.99000168
C    22.78000069   1.36999989  54.31000137
C    23.01000214   1.92000008  55.59000015
C    22.01999855   1.98000002  56.56000137
C    20.73999786   1.48000002  56.22000122
C    16.62999916   0.68000007  55.52000046
C    15.86999989   1.12000000  56.63999939
C    14.48999977   1.30999994  56.63000107
C    24.41999817   2.34999990  55.90999985
H    24.97638702   1.78647923  56.65898132
H    19.98999977   2.14000010  58.09999847
H    18.76000023   0.44000000  53.57999802
H    21.35999870   0.31000000  53.13999939
H    23.61000061   1.16999996  53.63999939
H    22.20999908   2.28999996  57.57999802
H    13.94999981   1.62000000  57.51999664
H    25.05000114   2.31999993  55.00999832
H    24.34999847   3.38999987  56.23000336
S    13.42000008  -0.12000000  53.06999969
C    10.67999935   0.03000000  53.77999878
C    11.98999977   0.34000003  54.02000046
C    12.32999992   0.81000000  55.33000183
C    11.35000038   1.05999994  56.25999832
C     9.98000050   0.90999997  55.91999817
C     8.89999962   1.15999997  56.81999969
C     7.59999990   1.04999995  56.42000198
C     7.22000027   0.55000001  55.13999939
C     8.23999977   0.19000000  54.29000092
C     9.61000061   0.41999999  54.61999893
C    13.78000069   0.90000004  55.50000000
C    14.48999977   0.34999999  54.40999985
C    15.86999989   0.25999999  54.40999985
C     5.79999971   0.16000001  54.79999924
H     5.42294931   0.66510552  53.91072845
H    10.38000011  -0.39000002  52.81999969
H    11.59999943   1.24000001  57.30999756
H     9.10000038   1.43999994  57.85999680
H     6.78999996   1.25999999  57.11000061
H     8.03999996  -0.51999998  53.48999786
H    16.40999985   0.07000000  53.48999786
H     5.12000036   0.27000001  55.65999985
H     5.69000006  -0.90000004  54.51000214
S    13.94000053  -1.88999999  49.97000122
C    11.28999901  -2.44000006  50.52999878
C    12.61000061  -2.70000005  50.81999969
C    13.01000023  -3.30999994  52.04999924
C    12.09000015  -3.86000013  52.93000031
C    10.72000027  -3.63999987  52.67000198
C     9.68000031  -4.05000019  53.55999756
C     8.34999943  -3.75000000  53.40000153
C     8.03999996  -3.05000019  52.19999695
C     8.97000027  -2.56999993  51.31999969
C    10.34999943  -2.89999986  51.49000168
C    14.44000053  -3.14000010  52.27000427
C    15.05000019  -2.30999994  51.29000092
C    16.36999893  -1.92000008  51.44000244
C     6.57000017  -2.71000004  52.04000092
H     6.19884443  -2.96695423  51.04787445
H    10.98999977  -1.70000005  49.79000092
H    12.38999939  -4.38000011  53.82999802
H     9.89000034  -4.55000019  54.50000000
H     7.63999987  -3.97000027  54.19000244
H     8.78999996  -2.02999997  50.38999939
H    16.88999939  -1.56000006  50.56000137
H     5.92999983  -3.17000008  52.81000137
H     6.48999977  -1.64000010  52.27000427
S    17.71999931  -3.89999986  54.59000015
C    20.38000107  -3.25999999  53.92000198
C    19.03000069  -3.07000017  53.72000122
C    18.56999969  -2.19000006  52.69000244
C    19.45000076  -1.67999995  51.76000214
C    20.84000015  -1.88999999  51.88999939
C    21.80999947  -1.35000002  50.98999786
C    23.12000084  -1.75000000  51.10000229
C    23.55999947  -2.52999997  52.21000290
C    22.67000008  -3.05000019  53.11000061
C    21.30000114  -2.73000002  52.97000122
C    17.13000107  -2.37000012  52.52999878
C    16.52000046  -3.25999999  53.46000290
C    15.19999981  -3.68000007  53.30999756
C    25.03000069  -2.86999989  52.30999756
H    25.49967384  -2.29358172  53.10702133
H    20.69000053  -3.81999993  54.79000092
H    19.04000092  -1.15999997  50.90000153
H    21.55999947  -0.78000003  50.10000229
H    23.81000137  -1.50000000  50.30000305
H    23.02000046  -3.60000014  53.99000168
H    14.81999969  -4.35999966  54.06000137
H    25.38000107  -2.61000013  51.30000305
H    25.03000069  -3.96000004  52.44999695
