96

S    17.65999985   2.73999977  57.42000198
C    20.38999939   2.76999998  56.75000000
C    19.09000015   2.51999998  56.39999771
C    18.78000069   1.90999997  55.13999939
C    19.81999969   1.66999996  54.26000214
C    21.17000198   1.88999999  54.61000061
C    22.27000046   1.46000004  53.81999969
C    23.57000160   1.62000000  54.22000122
C    23.88999939   2.37000012  55.38000107
C    22.84000015   2.77999997  56.17000198
C    21.47000122   2.52999997  55.86999893
C    17.35999870   1.58000004  55.04000092
C    16.61999893   2.05999994  56.14999771
C    15.24000072   2.20000005  56.14999771
C    25.31999969   2.75999999  55.68000031
H    25.64797211   2.28943157  56.60687637
H    20.66999817   3.05999994  57.76000214
H    19.56999969   1.25000000  53.29000092
H    22.06999969   0.94999999  52.87000275
H    24.40999985   1.34000003  53.59000397
H    23.05999947   3.30000019  57.09999847
H    14.73999977   2.75999999  56.93999863
H    25.88000107   2.46000004  54.78000259
H    25.32999992   3.86000013  55.75000000
S    14.15999985   0.87000000  52.63999939
C    11.44000053   0.83999997  53.26000214
C    12.71000004   1.24000001  53.60000229
C    13.07000065   1.84000003  54.85000229
C    12.02999973   2.05999994  55.73999786
C    10.69000053   1.80000007  55.35999680
C     9.61999989   2.14000010  56.23000336
C     8.30999947   1.84000003  55.91999817
C     8.00000000   1.13000000  54.72999954
C     9.02000046   0.69999999  53.92000198
C    10.34999943   1.15999997  54.10999680
C    14.51000023   1.77999997  55.02999878
C    15.27999973   1.25999999  53.95999908
C    16.65999985   1.13000000  53.92000198
C     6.57999992   0.64999998  54.52999878
H     6.01256895   1.21743107  53.79233932
H    11.33999920   0.14999999  52.43000031
H    12.17000008   2.44000006  56.75000000
H     9.89999962   2.44000006  57.23999786
H     7.51999950   1.89999998  56.65999985
H     8.89999962   0.03000000  53.06999969
H    17.17000008   0.71000004  53.04999924
H     6.11999989   0.79999995  55.51000214
H     6.61000013  -0.43000001  54.34000015
S    14.19000053  -1.38999999  49.86000061
C    11.57999992  -2.04999995  50.52999878
C    12.92000008  -2.09000015  50.86999893
C    13.35999966  -2.59999990  52.12999725
C    12.43000031  -3.07000017  53.04999924
C    11.05000019  -2.92000008  52.77000046
C    10.00000000  -3.37000012  53.61999893
C     8.67000008  -3.28000021  53.29999924
C     8.28999996  -2.63999987  52.09000015
C     9.23999977  -2.16999984  51.20999908
C    10.60999966  -2.37000012  51.52000046
C    14.80999947  -2.52999997  52.21000290
C    15.38000011  -1.90999997  51.06999969
C    16.75000000  -1.63000000  51.10000229
C     6.84999990  -2.30999994  51.73999786
H     6.42294931  -2.85804820  50.90013504
H    11.21999931  -1.71000004  49.55999756
H    12.69999981  -3.49000001  54.01000214
H    10.36000061  -3.88000011  54.52000046
H     7.86000013  -3.51000023  53.96999741
H     8.88000011  -1.80000007  50.26000214
H    17.28000069  -1.29999995  50.20999908
H     6.17999983  -2.54999995  52.56999969
H     6.76999998  -1.26999998  51.42000198
S    18.15000153  -3.03999996  54.52000046
C    20.81000137  -2.30999994  53.95000076
C    19.47000122  -2.25000000  53.63999939
C    19.00000000  -1.72000003  52.39999771
C    19.89999962  -1.33000004  51.42000198
C    21.28999901  -1.42000008  51.68000031
C    22.29000092  -1.01999998  50.76000214
C    23.62999916  -1.00000000  51.09000397
C    24.05999947  -1.48000002  52.36000061
C    23.12999916  -2.00999999  53.22999954
C    21.73999977  -1.92000008  52.95000076
C    17.54999924  -1.82999992  52.22999954
C    16.95999908  -2.53999996  53.30999756
C    15.60999966  -2.86999989  53.29999924
C    25.55000114  -1.51999998  52.60000229
H    25.79979515  -1.20597160  53.61345673
H    21.19999886  -2.61000013  54.92000198
H    19.65999985  -0.92000002  50.45000076
H    21.88999939  -0.46000001  49.92000198
H    24.33000183  -0.69000000  50.33000183
H    23.39999962  -2.44000006  54.19000244
H    15.22999954  -3.26999998  54.23999786
H    26.02999878  -0.99000001  51.77000046
H    25.79000092  -2.59000015  52.48000336
