96

S    17.57999992   2.17999983  57.74000168
C    20.22000122   2.24000001  57.04999924
C    18.96999931   1.79000008  56.70000076
C    18.53000069   1.31999993  55.43000031
C    19.56999969   1.14999998  54.54000092
C    20.92000008   1.43999994  54.86000061
C    21.97000122   1.00999999  54.00000000
C    23.26999855   1.39999998  54.22000122
C    23.59000015   2.09000015  55.40999985
C    22.63999939   2.29999995  56.38999939
C    21.27000046   2.07999992  56.10000229
C    17.07999992   1.30999994  55.30000305
C    16.42000008   1.74000001  56.47999573
C    15.03999901   1.75000000  56.63000107
C    25.03000069   2.48000002  55.65000153
H    25.44949532   1.84720302  56.43210983
H    20.39999962   2.73000002  58.00000000
H    19.51000023   0.39000002  53.75999832
H    21.70000076   0.44000000  53.11000061
H    23.98999977   0.96000004  53.54000092
H    22.98999977   2.72000027  57.32999802
H    14.56999969   2.16999984  57.51999664
H    25.59000015   2.43000007  54.71000290
H    24.84999847   3.50000000  56.00000000
S    13.82999992   0.27000001  53.11999893
C    11.16000080   0.46999997  53.70999908
C    12.43999958   0.83999997  54.06000137
C    12.84000015   1.28000009  55.35999680
C    11.85999966   1.46000004  56.31000137
C    10.52000046   1.15999997  55.97000122
C     9.50000000   1.15999997  56.95999908
C     8.21000004   0.74000001  56.72999954
C     7.90000010   0.24000001  55.44000244
C     8.82999992   0.14000000  54.41999817
C    10.14000034   0.64000005  54.68000031
C    14.28999996   1.31999993  55.52999878
C    14.94999981   0.81000000  54.38999939
C    16.34000015   0.78000003  54.23999786
C     6.48000002  -0.14000000  55.08999634
H     6.03879881   0.33678192  54.21471405
H    10.88000107  -0.04000000  52.80000305
H    12.15999985   1.59999990  57.35000229
H     9.76000023   1.50999999  57.95999908
H     7.46999979   0.82999998  57.51999664
H     8.50000000  -0.25999999  53.47000122
H    16.61000061   0.25000000  53.33000183
H     5.82999992  -0.01000000  55.96000290
H     6.51999998  -1.21000004  54.85000229
S    14.15999985  -1.50999999  50.07999802
C    11.46999931  -2.00000000  50.66999817
C    12.79999924  -2.23000002  50.96000290
C    13.27000046  -2.98000002  52.09000015
C    12.27000046  -3.48000002  52.90999985
C    10.90000057  -3.28999996  52.63999939
C     9.88000011  -3.84999990  53.46000290
C     8.52999973  -3.74000025  53.20999908
C     8.14000034  -2.86999989  52.15999985
C     9.06999969  -2.24000001  51.36000061
C    10.44999981  -2.54999995  51.49000168
C    14.70000076  -2.84000015  52.34000397
C    15.31000042  -2.05999994  51.32999802
C    16.65999985  -1.75000000  51.27999878
C     6.70000029  -2.68000007  51.76000214
H     6.42995548  -3.52566600  51.12752533
H    11.09000015  -1.30999994  49.93000031
H    12.44999981  -3.91999984  53.88999939
H    10.31000042  -4.32000017  54.34000015
H     7.82000017  -4.19000006  53.89999771
H     8.82000065  -1.59999990  50.52000046
H    16.95999908  -1.13999999  50.41999817
H     6.05999994  -2.79999995  52.64999771
H     6.63000011  -1.67999995  51.31000137
S    18.00000000  -3.30999994  54.68000031
C    20.71000099  -2.75999999  54.09999847
C    19.37999916  -2.63000011  53.77999878
C    18.94000053  -2.02999997  52.55000305
C    19.89999962  -1.58000004  51.66999817
C    21.28000069  -1.61000001  51.98999786
C    22.29000092  -1.21000004  51.06999969
C    23.61000061  -1.22000003  51.43000031
C    24.02000046  -1.87999988  52.63000107
C    23.08000183  -2.44000006  53.46000290
C    21.68999863  -2.28999996  53.18999863
C    17.50000000  -2.07999992  52.34000397
C    16.87000084  -2.77999997  53.40999985
C    15.55999947  -3.23000002  53.36999893
C    25.50000000  -2.00000000  52.87000275
H    25.93401909  -1.58732569  53.78073120
H    21.01000023  -3.30999994  54.99000168
H    19.55999947  -1.25000000  50.68999863
H    21.97000122  -0.69000000  50.17000198
H    24.27000046  -0.54000002  50.90999985
H    23.40999985  -3.17000008  54.19000244
H    15.17000008  -3.84000015  54.18000031
H    26.04000092  -1.57000005  52.01000214
H    25.69999886  -3.07000017  52.72999573
