96

S    17.59000015   1.64000010  57.68000031
C    20.29000092   1.79000008  57.09999847
C    19.04000092   1.39999998  56.66999817
C    18.68999863   1.00000000  55.34000015
C    19.78000069   0.69000000  54.54999924
C    21.07999992   1.14999998  54.85000229
C    22.13999939   0.88000000  53.95000076
C    23.42000008   1.21000004  54.31999969
C    23.68000031   1.74000001  55.61000061
C    22.65999985   2.10999990  56.45999908
C    21.31999969   1.79000008  56.11999893
C    17.25000000   1.07000005  55.11000061
C    16.53000069   1.43999994  56.26999664
C    15.14999962   1.58999991  56.31999969
C    25.10000038   2.17999983  55.93000031
H    25.54942894   1.58076167  56.72185135
H    20.55000114   2.17999983  58.08000183
H    19.61000061   0.17999999  53.60000229
H    21.80999947   0.48999998  52.98999786
H    24.20999908   1.34000003  53.57999802
H    22.93000031   2.49000001  57.44999695
H    14.65999985   1.65000010  57.29000092
H    25.71000099   2.17999983  55.01999664
H    25.09000015   3.22000003  56.29000092
S    13.99000072   0.17999999  52.81000137
C    11.31000042   0.20999999  53.57999802
C    12.61999989   0.48999998  53.89999771
C    12.97000027   1.08999991  55.14999771
C    12.01000023   1.33000004  56.11000061
C    10.65999985   0.99000001  55.84000015
C     9.64999962   1.08000004  56.83000183
C     8.32999992   0.79999995  56.56000137
C     7.96000004   0.38000000  55.25000000
C     8.93000031   0.24000001  54.29000092
C    10.31000042   0.43000001  54.54999924
C    14.42000008   1.28000009  55.17000198
C    15.11999989   0.74000001  54.06000137
C    16.50000000   0.64000005  54.01000214
C     6.56000042  -0.14999999  55.01999664
H     5.99195433   0.39674389  54.26733780
H    11.03000069  -0.11000000  52.57999802
H    12.25999928   1.76999998  57.06999969
H     9.98000050   1.36000013  57.83000183
H     7.57000017   0.90999997  57.32999802
H     8.63000011  -0.24000001  53.36000061
H    16.95999908   0.22000000  53.11999893
H     6.01999998  -0.22000000  55.97000122
H     6.57999992  -1.22000003  54.79999924
S    13.75000000  -1.77999997  50.15999603
C    11.13999939  -2.31999993  50.97999954
C    12.48000050  -2.53999996  51.14999771
C    13.02999973  -3.22000003  52.28000259
C    12.13000107  -3.75999975  53.18000031
C    10.73999977  -3.63999987  52.97999954
C     9.73999977  -4.15999985  53.85000229
C     8.38999939  -3.98000002  53.67000198
C     7.90000010  -3.17999983  52.61000061
C     8.80999947  -2.61999989  51.73999786
C    10.19999981  -2.86999989  51.88999939
C    14.47999954  -3.12999988  52.30999756
C    15.03000069  -2.39999986  51.22000122
C    16.39000130  -2.11999989  51.17000198
C     6.40999985  -3.17999983  52.36000061
H     6.21728468  -3.63680696  51.38928604
H    10.77999973  -1.85000002  50.06000137
H    12.43999958  -4.13000011  54.15999985
H    10.03000069  -4.65999985  54.77000427
H     7.69999981  -4.51999998  54.31999969
H     8.47000027  -2.09000015  50.86000061
H    16.75000000  -1.58999991  50.30000305
H     5.92000008  -3.78999996  53.13999939
H     5.96000004  -2.17999983  52.39999771
S    17.92000008  -3.54999995  54.50000000
C    20.58000183  -2.79999995  53.83999634
C    19.23999977  -2.80999994  53.55999756
C    18.64999962  -2.25999999  52.37999725
C    19.52000046  -1.58999991  51.53999710
C    20.92000008  -1.50000000  51.75000000
C    21.80999947  -0.88000000  50.81999969
C    23.16999817  -0.93999994  51.02000427
C    23.74000168  -1.58000004  52.15000153
C    22.86000061  -2.16000009  53.04000092
C    21.45000076  -2.20000005  52.88999939
C    17.21999931  -2.50000000  52.22999954
C    16.64999962  -3.24000001  53.29999924
C    15.31000042  -3.56999993  53.34999847
C    25.22999954  -1.75000000  52.30999756
H    25.56971169  -1.67922676  53.34328842
H    20.92000008  -3.28999996  54.75000000
H    19.20999908  -1.16999996  50.58000183
H    21.28999901  -0.43000001  49.98000336
H    23.88000107  -0.61000001  50.27000046
H    23.21000099  -2.66000009  53.94000244
H    14.96000099  -4.19999981  54.16999817
H    25.63999939  -0.96000004  51.66999817
H    25.53999901  -2.68000007  51.81999969
