96

S    17.68000031   1.95999992  57.68000031
C    20.35000038   2.16000009  56.88000107
C    19.04999924   1.80999994  56.56000137
C    18.68000031   1.47000003  55.21999741
C    19.67000008   1.19000006  54.29999924
C    21.02999878   1.38999999  54.65999985
C    22.13999939   1.02999997  53.85000229
C    23.45999908   1.15999997  54.20000076
C    23.78000069   1.89999998  55.37000275
C    22.75000000   2.25000000  56.20999908
C    21.38000107   1.99000001  55.91999817
C    17.23999977   1.29999995  55.14999771
C    16.55999947   1.59999990  56.35000229
C    15.17000008   1.62000000  56.45999908
C    25.19000053   2.25999999  55.77999878
H    25.62535667   1.54630077  56.47942734
H    20.59000015   2.48000002  57.88999939
H    19.48999977   0.65999997  53.36000061
H    21.81999969   0.61000001  52.90000153
H    24.20000076   0.71000004  53.54999924
H    22.98999977   2.70000005  57.16999817
H    14.72000027   2.01999998  57.36999893
H    25.86999893   2.09000015  54.93000031
H    25.25000000   3.30999994  56.07999802
S    14.04000092   0.31000000  52.85999680
C    11.30000019   0.46000001  53.43999863
C    12.60000038   0.71000004  53.81000137
C    12.98999977   1.19999993  55.08999634
C    11.98999977   1.65999997  55.93000031
C    10.65999985   1.26999998  55.63999939
C     9.67000008   1.53999996  56.62000275
C     8.36000061   1.22000003  56.32999802
C     7.99000025   0.45000002  55.20000076
C     8.93000031   0.23000000  54.20999908
C    10.26999950   0.64999998  54.40000153
C    14.42999935   1.19000006  55.34999847
C    15.11999989   0.73000002  54.20000076
C    16.50000000   0.78000003  54.08000183
C     6.60000038  -0.09000000  54.95999908
H     6.23048878   0.30793512  54.01490021
H    11.03999996  -0.03000000  52.50000000
H    12.23000050   2.11999989  56.88999939
H    10.03999901   1.81999993  57.60000229
H     7.53999996   1.43000007  57.02000046
H     8.59000015  -0.27000001  53.30999756
H    17.01000023   0.41999999  53.18000031
H     5.96000004   0.27000001  55.77999878
H     6.70000029  -1.18000007  54.91000366
S    14.06999969  -1.84000003  50.04000092
C    11.44000053  -2.46000004  50.63999939
C    12.76999950  -2.68000007  50.91999817
C    13.22999954  -3.17000008  52.18000031
C    12.30999947  -3.71000004  53.06000137
C    10.93000031  -3.48000002  52.81999969
C     9.98999977  -3.81000018  53.83999634
C     8.67000008  -3.51000023  53.63999939
C     8.14999962  -3.14000010  52.36999893
C     9.07999992  -2.75999999  51.43000031
C    10.47999954  -2.86000013  51.60999680
C    14.67000008  -2.98000002  52.30999756
C    15.27999973  -2.20000005  51.30000305
C    16.60000038  -1.79000008  51.19999695
C     6.65000010  -3.17999983  52.15000153
H     6.29467773  -3.17289352  51.11956787
H    11.11999989  -2.01999998  49.69999695
H    12.56000042  -4.00999975  54.06999969
H    10.25000000  -4.33999968  54.75999832
H     7.92999983  -3.88000011  54.34000015
H     8.82000065  -2.56000018  50.38999939
H    17.02999878  -1.29999995  50.33000183
H     6.25000000  -4.07000017  52.64999771
H     6.24000025  -2.32999992  52.70000076
S    18.02999878  -3.42000008  54.47000122
C    20.72000122  -2.86000013  53.80000305
C    19.37000084  -2.75000000  53.52000427
C    18.96999931  -2.06999993  52.32999802
C    19.89999962  -1.54999995  51.44000244
C    21.28000069  -1.63000000  51.72000122
C    22.32999992  -0.97999996  51.00999832
C    23.68000031  -1.16999996  51.24000168
C    24.02000046  -1.99000001  52.36000061
C    23.05999947  -2.47000003  53.22000122
C    21.68000031  -2.27999997  52.94000244
C    17.53000069  -2.19000006  52.16999817
C    16.90000153  -2.94999981  53.18000031
C    15.59000015  -3.40000010  53.29000092
C    25.43999863  -2.43000007  52.63999939
H    25.92815971  -2.00551295  53.51727295
H    21.02000046  -3.51000023  54.61999893
H    19.45999908  -1.19000006  50.51000214
H    22.06999969  -0.46000001  50.08999634
H    24.50000000  -0.85000002  50.61999893
H    23.29999924  -3.17000008  54.01000214
H    15.27999973  -3.91999984  54.19000244
H    26.07000160  -2.27999997  51.76000214
H    25.38000107  -3.51999998  52.76000214
