96

S    17.28000069   1.98000002  57.85999680
C    20.03000069   2.05999994  57.27000427
C    18.76000023   1.66999996  56.91999817
C    18.37000084   1.28999996  55.59000015
C    19.42000008   1.04999995  54.72000122
C    20.76000023   1.34000003  55.04000092
C    21.83000183   1.08000004  54.13000107
C    23.09999847   1.54999995  54.38000107
C    23.42000008   2.15000010  55.63000107
C    22.39000130   2.40999985  56.51000214
C    21.05999947   1.94000006  56.31000137
C    16.93000031   1.34000003  55.35999680
C    16.18000031   1.79000008  56.47999573
C    14.80000019   1.95999992  56.45999908
C    24.82999992   2.56000018  55.96000290
H    25.29992676   2.00463271  56.77169037
H    20.09000015   2.43000007  58.29000092
H    19.18000031   0.54000002  53.79000092
H    21.61999893   0.71000004  53.13000107
H    23.95000076   1.43999994  53.70999908
H    22.62000084   2.99000001  57.39999771
H    14.34000015   2.25000000  57.39999771
H    25.43000031   2.44000006  55.05000305
H    24.86000061   3.63999987  56.17000198
S    13.82999992   0.48999998  52.85999680
C    11.10000038   0.39999998  53.52000427
C    12.36999989   0.86000001  53.80000305
C    12.75000000   1.43000007  55.06000137
C    11.72000027   1.71000004  55.93999863
C    10.39999962   1.25999999  55.68000031
C     9.35000038   1.38999999  56.63000107
C     8.05999947   0.97999996  56.43000031
C     7.76999998   0.44000000  55.14999771
C     8.67999935   0.39999998  54.12000275
C    10.05000019   0.59999996  54.45000076
C    14.19000053   1.52999997  55.27000046
C    14.91000080   0.96000004  54.19000244
C    16.29999924   0.92000002  54.19000244
C     6.37000036  -0.03000000  54.86999893
H     5.98011351   0.44495323  53.96971512
H    10.98999977   0.00000000  52.50999832
H    11.90000057   2.17999983  56.90000153
H     9.56999969   1.80000007  57.62000275
H     7.30000019   1.12000000  57.18999863
H     8.45000076   0.14000000  53.09000015
H    16.86000061   0.55000001  53.34000015
H     5.78999996   0.07000000  55.79000092
H     6.50000000  -1.08999991  54.61000061
S    17.79000092   2.33999991  51.90000153
C    20.52000046   2.30999994  51.27999878
C    19.22999954   1.99000001  50.91999817
C    18.88000107   1.56000006  49.59999847
C    19.84000015   1.41000009  48.61000061
C    21.11999893   1.92000008  48.90999603
C    22.10000038   1.95999992  47.88999939
C    23.39999962   2.29999995  48.18999863
C    23.75000000   2.72000027  49.50000000
C    22.79000092   2.86999989  50.47999954
C    21.47000122   2.37000012  50.22999573
C    17.43999863   1.42000008  49.41999817
C    16.73999977   1.99000001  50.51000214
C    15.36999893   2.21000004  50.50000000
C    25.20000076   3.00999999  49.80999756
H    25.70610809   2.44686508  50.59411240
H    20.75000000   2.86999989  52.16999817
H    19.55000114   0.90000004  47.69000244
H    21.87999916   1.48000002  46.93999863
H    24.26000214   1.90999997  47.65999603
H    22.93000031   3.15000010  51.52000046
H    14.89999962   2.44000006  51.45000076
H    25.72000122   2.75999999  48.87000275
H    25.32999992   4.05000019  50.13999939
S    14.21000004   1.03999996  46.86999893
C    11.50000000   0.94999999  47.64999771
C    12.81999969   1.23000002  47.95000076
C    13.20000076   1.79000008  49.20999908
C    12.18000031   2.00000000  50.12000275
C    10.81999969   1.72999990  49.87999725
C     9.78999996   1.94999993  50.84000015
C     8.47999954   1.58000004  50.61999893
C     8.22000027   0.97000003  49.36000061
C     9.15000057   0.67000002  48.39000320
C    10.47000027   1.13000000  48.61000061
C    14.65000057   1.87999988  49.34000015
C    15.31999969   1.30999994  48.22000122
C    16.69000053   1.11000001  48.27999878
C     6.80000019   0.54000002  49.06999969
H     6.35954094   1.10123038  48.24591446
H    11.23999977   0.48999998  46.70999908
H    12.48000050   2.33999991  51.11000061
H    10.14000034   2.25999999  51.81999969
H     7.67000008   1.81999993  51.29000092
H     8.92000008   0.14000000  47.47000122
H    17.30999947   0.99000001  47.38999939
H     6.15000010   0.55000001  49.94999695
H     6.81999969  -0.50999999  48.75999832
