96

S    17.53999901   1.88999999  57.50999832
C    20.20999908   1.93000007  56.86000061
C    18.95000076   1.50000000  56.50000000
C    18.56999969   0.99000001  55.21999741
C    19.55000114   1.00999999  54.23999786
C    20.86999893   1.35000002  54.59999847
C    21.88999939   1.34000003  53.60000229
C    23.21000099   1.63000000  53.86000061
C    23.57000160   1.90999997  55.20000076
C    22.63000107   2.04999995  56.18999863
C    21.25000000   1.81999993  55.90000153
C    17.12000084   0.88000000  55.10000229
C    16.42000008   1.31999993  56.25000000
C    15.03999901   1.43999994  56.33999634
C    25.02000046   2.21000004  55.52999878
H    25.43887901   1.66332698  56.37485886
H    20.34000015   2.33999991  57.84999847
H    19.30999947   0.61000001  53.26000214
H    21.64999962   0.88999999  52.63999939
H    23.90000153   1.76999998  53.02999878
H    22.81999969   2.28999996  57.22999954
H    14.55000019   1.80999994  57.23999786
H    25.65000153   2.05999994  54.65000153
H    25.12000084   3.28999996  55.70000076
S    13.86999989  -0.02000000  52.84999847
C    11.13999939   0.27000001  53.43000031
C    12.44999981   0.52999997  53.75999832
C    12.84000015   1.10000002  55.00999832
C    11.84999943   1.43999994  55.91999817
C    10.51000023   1.11000001  55.63999939
C     9.48000050   1.33000004  56.60999680
C     8.18000031   1.00000000  56.32999802
C     7.88000011   0.25999999  55.14999771
C     8.82999992   0.04000000  54.18000031
C    10.11999989   0.61000001  54.36000061
C    14.27999973   1.13999999  55.20000076
C    14.96999931   0.54000002  54.12000275
C    16.35000038   0.34999999  54.06000137
C     6.48999977  -0.25000000  54.86000061
H     5.95321512   0.37266999  54.14428711
H    10.90999985  -0.39000002  52.60000229
H    12.05000019   1.84000003  56.90999985
H     9.89000034   1.77999997  57.51999664
H     7.36999989   1.34000003  56.97000122
H     8.60999966  -0.65999997  53.36999893
H    16.79999924  -0.09999999  53.18000031
H     5.92000008  -0.31000000  55.79999924
H     6.63999987  -1.28000009  54.51000214
S    14.04000092  -1.92000008  49.86999893
C    11.31999969  -2.38000011  50.52000046
C    12.65999985  -2.51999998  50.80999756
C    13.09999943  -3.15000010  52.02000046
C    12.17000008  -3.70000005  52.88000107
C    10.77999973  -3.53999996  52.68000031
C     9.81000042  -3.95000005  53.63999939
C     8.50000000  -3.74000025  53.30999756
C     8.07999992  -3.24000001  52.04999924
C     9.01000023  -2.82000017  51.12999725
C    10.39000034  -2.98000002  51.40999603
C    14.55000019  -3.12999988  52.12999725
C    15.21999931  -2.40999985  51.11000061
C    16.54000092  -1.98000002  51.16000366
C     6.63000011  -3.03999996  51.65000153
H     6.27358532  -3.47482562  50.71619415
H    11.02000046  -1.77999997  49.66999817
H    12.46000099  -3.97000027  53.89999771
H    10.08999920  -4.40000010  54.59000015
H     7.78999996  -3.98000002  54.10999680
H     8.69000053  -2.36000013  50.20000076
H    17.05000114  -1.24000001  50.56000137
H     5.98000002  -3.25999999  52.50000000
H     6.52999973  -1.94999993  51.62000275
S    17.84000015  -3.79999995  54.50000000
C    20.48999977  -3.09999990  54.02999878
C    19.18000031  -3.00999999  53.63999939
C    18.71999931  -2.37000012  52.43999863
C    19.62000084  -1.63000000  51.69000244
C    21.00000000  -1.79000008  51.97000122
C    22.01999855  -1.25000000  51.13999939
C    23.34000015  -1.38999999  51.47999573
C    23.78000069  -2.21000004  52.56000137
C    22.80999947  -2.84999990  53.29000092
C    21.42999840  -2.57999992  53.09999847
C    17.29999924  -2.54999995  52.18999863
C    16.69999886  -3.30000019  53.22999954
C    15.36000061  -3.65000010  53.15000153
C    25.20999908  -2.70000005  52.60000229
H    25.68304634  -2.33285975  53.51079178
H    20.76999855  -3.81000018  54.79999924
H    19.23999977  -1.07000005  50.84999847
H    21.84000015  -0.69999999  50.21999741
H    24.07999992  -0.97000003  50.79999924
H    23.12000084  -3.48000002  54.12000275
H    14.91000080  -4.13000011  54.02000046
H    25.78000069  -2.32999992  51.73999786
H    25.28000069  -3.78999996  52.63999939
