96

S    17.46999931   1.72000003  57.62000275
C    20.15999985   1.95999992  56.97000122
C    18.90999985   1.53999996  56.59000015
C    18.55999947   0.97999996  55.31999969
C    19.63999939   0.68000007  54.50000000
C    20.96999931   1.05999994  54.79999924
C    22.04000092   0.93999994  53.88000107
C    23.31999969   1.38999999  54.13000107
C    23.54999924   2.04999995  55.37000275
C    22.56999969   2.04999995  56.32999802
C    21.21999931   1.66999996  56.07999802
C    17.13000107   0.76999998  55.13000107
C    16.43000031   1.25000000  56.25999832
C    15.03999901   1.24000001  56.38000107
C    24.96000099   2.51999998  55.65000153
H    25.48705482   1.89323163  56.36935806
H    20.36000061   2.33999991  57.97000122
H    19.50000000   0.32999998  53.47999954
H    21.97000122   0.46999997  52.90000153
H    24.17000008   1.12000000  53.52000427
H    22.73999977   2.50999975  57.29999924
H    14.52999973   1.59999990  57.27000427
H    25.59999847   2.49000001  54.75999832
H    24.76000023   3.55999994  55.94999695
S    13.88000011   0.13000000  52.77000046
C    11.16000080   0.11000000  53.47999954
C    12.46999931   0.34999999  53.82999802
C    12.81000042   0.71999997  55.17000198
C    11.82000065   1.08000004  56.06999969
C    10.46000004   0.90999997  55.70999908
C     9.40999985   1.22000003  56.62000275
C     8.11999989   0.92000002  56.27999878
C     7.77999973   0.37000000  55.00999832
C     8.76999950   0.16000001  54.09000015
C    10.13000011   0.46000001  54.38999939
C    14.26000023   0.78000003  55.31000137
C    14.96999931   0.37000000  54.15999985
C    16.35000038   0.34000003  54.05000305
C     6.39999962  -0.24000001  54.84000397
H     5.95168495   0.17273480  53.93625259
H    10.90999985  -0.29999998  52.50000000
H    12.05000019   1.49000001  57.04000092
H     9.63000011   1.41000009  57.67000198
H     7.36999989   0.82000005  57.05999756
H     8.61999989  -0.23000000  53.08000183
H    16.84000015   0.05000000  53.11999893
H     5.75000000  -0.09000000  55.70999908
H     6.61000013  -1.30999994  54.72999954
S    14.25000000  -1.65999997  49.91000366
C    11.59999943  -2.11999989  50.41999817
C    12.89000034  -2.53999996  50.63000107
C    13.30000019  -3.24000001  51.81000137
C    12.34000015  -3.76999998  52.64999771
C    10.98999977  -3.38000011  52.48000336
C     9.92000008  -3.82999992  53.30999756
C     8.61999989  -3.42999983  53.13000107
C     8.27000046  -2.63000011  52.01000214
C     9.25000000  -2.23000002  51.13999939
C    10.62000084  -2.56000018  51.36000061
C    14.72000027  -3.08999991  52.08000183
C    15.38000011  -2.27999997  51.12999725
C    16.72000122  -1.88999999  51.20999908
C     6.78999996  -2.59000015  51.69000244
H     6.54808760  -3.50072789  51.14213943
H    11.35000038  -1.42000008  49.62999725
H    12.48999977  -4.38000011  53.54000092
H    10.13000011  -4.53000021  54.10999680
H     7.88000011  -3.91000009  53.76999664
H     8.96000004  -1.88999999  50.14999771
H    17.12000084  -1.13999999  50.52999878
H     6.23000050  -2.50999975  52.62000275
H     6.65999985  -1.64000010  51.13999939
S    17.97000122  -3.68999982  54.47999954
C    20.66999817  -3.23000002  53.86000061
C    19.34000015  -3.12000012  53.50999832
C    18.96000099  -2.47000003  52.29000092
C    19.90999985  -2.00000000  51.39999771
C    21.27000046  -2.02999997  51.77999878
C    22.27999878  -1.38000000  51.00999832
C    23.57999992  -1.65000010  51.36000061
C    24.00000000  -2.34999990  52.51999664
C    23.02000046  -2.80999994  53.36999893
C    21.64999962  -2.66999984  53.01000214
C    17.51000023  -2.51999998  52.16999817
C    16.84999847  -3.30000019  53.15999985
C    15.48999977  -3.55999994  53.15999985
C    25.45999908  -2.68000007  52.76000214
H    25.93541336  -2.16910625  53.59730148
H    20.95000076  -3.88999987  54.68000031
H    19.65999985  -1.63000000  50.40999985
H    21.98999786  -0.86000001  50.10000229
H    24.34000015  -1.23000002  50.70000076
H    23.25000000  -3.51000023  54.15999985
H    15.08999920  -4.03999996  54.05000305
H    26.18000031  -2.48000002  51.95999908
H    25.61000061  -3.74000025  52.98999786
