96

S    18.23999977   2.34999990  57.52999878
C    20.95000076   2.21000004  56.81999969
C    19.63999939   1.89999998  56.53999710
C    19.23999977   1.21000004  55.34999847
C    20.20000076   0.94999999  54.38000107
C    21.54999924   1.24000001  54.68000031
C    22.63000107   1.00999999  53.77999878
C    23.90999985   1.48000002  53.92000198
C    24.27000046   2.25999999  55.05000305
C    23.26000023   2.53999996  55.93999863
C    21.94999886   1.98000002  55.84999847
C    17.79999924   1.15999997  55.21999741
C    17.13000107   1.54999995  56.39999771
C    15.76000023   1.79000008  56.44000244
C    25.72000122   2.61999989  55.31000137
H    26.21118164   1.97220969  56.03609467
H    21.21000099   2.73999977  57.74000168
H    20.00999832   0.54000002  53.39000320
H    22.42000198   0.61000001  52.78999710
H    24.57999992   1.36999989  53.06999969
H    23.48999977   3.02999997  56.86999893
H    15.39999962   2.29999995  57.32999802
H    26.25999832   2.76999998  54.36999893
H    25.52999878   3.63999987  55.65999985
S    14.52999973   0.59000003  52.78999710
C    11.82999992   0.57999998  53.62999725
C    13.15000057   0.90999997  53.86000061
C    13.53999996   1.44999993  55.12000275
C    12.55000019   1.71000004  56.04999924
C    11.18000031   1.39999998  55.83000183
C    10.11999989   1.46000004  56.77999878
C     8.80999947   1.19000006  56.45999908
C     8.53999996   0.52999997  55.22999573
C     9.55999947   0.14999999  54.38000107
C    10.80000019   0.82999998  54.56999969
C    14.98999977   1.47000003  55.31000137
C    15.62000084   1.08000004  54.09999847
C    17.00000000   0.88999999  54.09000015
C     7.20000029  -0.14999999  55.02999878
H     6.59728241   0.46689904  54.36346436
H    11.56999969   0.11000000  52.68000031
H    12.94000053   1.92000008  57.04000092
H    10.38000011   1.62000000  57.81999969
H     8.06999969   1.24000001  57.25000000
H     9.50000000  -0.56999999  53.56999969
H    17.46000099   0.59000003  53.15999985
H     6.72999954  -0.28999999  56.00999832
H     7.34000015  -1.14999998  54.61999893
S    14.88000011  -1.50999999  50.02999878
C    12.25000000  -2.21000004  50.61999893
C    13.56999969  -2.21000004  51.00000000
C    14.02999973  -2.73000002  52.25000000
C    13.09999943  -3.25999999  53.11999893
C    11.71000004  -3.22000003  52.84000015
C    10.70000076  -3.63999987  53.75999832
C     9.35999966  -3.44000006  53.50000000
C     8.93000031  -2.86000013  52.28000259
C     9.90999985  -2.53999996  51.36000061
C    11.31000042  -2.71000004  51.56000137
C    15.47999954  -2.63999987  52.39999771
C    16.05999947  -2.06999993  51.24000168
C    17.42000008  -1.81999993  51.18999863
C     7.46999979  -2.50000000  52.11000061
H     6.97219896  -2.83423758  51.19973755
H    12.02999973  -1.72999990  49.66999817
H    13.40000057  -3.70000005  54.06999969
H    11.05999947  -4.00999975  54.71000290
H     8.59000015  -3.68999982  54.22000122
H     9.59999943  -1.90999997  50.54000092
H    17.84000015  -1.25000000  50.37000275
H     6.94999981  -2.89999986  52.97999954
H     7.44000006  -1.41000009  52.27000427
S    18.81999969  -3.40000010  54.59000015
C    21.48999977  -2.69000006  53.92000198
C    20.13999939  -2.66999984  53.66000366
C    19.61000061  -2.13000011  52.43999863
C    20.51000214  -1.85000002  51.42000198
C    21.90000153  -1.80000007  51.69000244
C    22.79999924  -1.24000001  50.72999954
C    24.13999939  -1.30999994  51.00999832
C    24.64999962  -1.86000001  52.22000122
C    23.81999969  -2.37000012  53.18999863
C    22.43000031  -2.27999997  52.94000244
C    18.17000008  -2.25999999  52.29000092
C    17.59000015  -2.82999992  53.44999695
C    16.21999931  -3.03999996  53.52000427
C    26.04999924  -1.46000004  52.63000107
H    26.34168053  -1.85127914  53.60464096
H    21.87999916  -3.16000009  54.81999969
H    20.13999939  -1.58999991  50.44000244
H    22.34999847  -0.57999998  49.99000168
H    24.80999947  -0.61000001  50.52000046
H    24.21999931  -2.71000004  54.13999939
H    15.75000000  -3.45999980  54.40999985
H    26.05999947  -0.37000000  52.60000229
H    26.77999878  -1.75999999  51.86999893
