96

S    17.70000076   1.94000006  57.63999939
C    20.38999939   2.01999998  56.83000183
C    19.06999969   1.75000000  56.52999878
C    18.68000031   1.11000001  55.31000137
C    19.71999931   0.85000002  54.43000031
C    21.07999992   1.16999996  54.64000320
C    22.13999939   1.14999998  53.69999695
C    23.45000076   1.38999999  54.03999710
C    23.75999832   1.87000012  55.34000015
C    22.76000023   2.09000015  56.25000000
C    21.44000053   1.63000000  55.96000290
C    17.23999977   1.03999996  55.15999603
C    16.57999992   1.51999998  56.31999969
C    15.21000004   1.77999997  56.38000107
C    25.13999939   2.43000007  55.61999893
H    25.58778000   1.79031205  56.38051987
H    20.66999817   2.61999989  57.69000244
H    19.54000092   0.85000002  53.36000061
H    21.94999886   0.96000004  52.63999939
H    24.17000008   1.43999994  53.22999954
H    22.89999962   2.56999993  57.21000290
H    14.77000046   2.29999995  57.22000122
H    25.75000000   2.39999986  54.69999695
H    25.00000000   3.42000008  56.05999756
S    14.01000023   0.63000000  52.72999573
C    11.31999969   0.55000001  53.52000427
C    12.63000011   0.78000003  53.83999634
C    13.00000000   1.26999998  55.13999939
C    12.02000046   1.56000006  56.07999802
C    10.67999935   1.18000007  55.79000092
C     9.59000015   1.30999994  56.69000244
C     8.28999996   1.03999996  56.36000061
C     7.96999979   0.46999997  55.10000229
C     8.97999954   0.27000001  54.16999817
C    10.31000042   0.63000000  54.51000214
C    14.44000053   1.36999989  55.28999710
C    15.08999920   0.93999994  54.09999847
C    16.44000053   0.64000005  54.08000183
C     6.54999971   0.03000000  54.81999969
H     6.00922060   0.72020507  54.17248535
H    11.00999928   0.19999999  52.52999878
H    12.28000069   1.75999999  57.11000061
H     9.72999954   1.71000004  57.69000244
H     7.53999996   1.18000007  57.12999725
H     8.85000038  -0.03000000  53.13999939
H    16.84999847   0.28999999  53.13000107
H     6.02999973  -0.04000000  55.77999878
H     6.53999996  -0.97999996  54.40999985
S    14.00000000  -1.43000007  50.04000092
C    11.32999992  -1.88999999  50.68999863
C    12.65999985  -2.01999998  51.04000092
C    13.12000084  -2.63999987  52.23999786
C    12.13999939  -3.05999994  53.13000107
C    10.77999973  -2.80999994  52.84999847
C     9.77999973  -3.25000000  53.75999832
C     8.46000004  -3.17000008  53.40000153
C     8.01000023  -2.66999984  52.15000153
C     8.93000031  -2.26999998  51.22000122
C    10.31000042  -2.30999994  51.58000183
C    14.57999992  -2.69000006  52.32999802
C    15.17000008  -2.02999997  51.23000336
C    16.48999977  -1.59999990  51.26999664
C     6.53999996  -2.37000012  51.93000031
H     6.14093494  -2.71205568  50.97509384
H    11.07999992  -1.54999995  49.68999863
H    12.39999962  -3.75000000  53.92000198
H    10.05000019  -3.42000008  54.79999924
H     7.78999996  -3.55999994  54.15999985
H     8.60000038  -1.84000003  50.27999878
H    16.87999916  -1.05999994  50.40000153
H     5.84999990  -2.63999987  52.74000168
H     6.46000004  -1.28000009  51.93999863
S    17.97000122  -3.38000011  54.55999756
C    20.55999947  -2.66999984  53.82999802
C    19.20999908  -2.57999992  53.57999802
C    18.71000099  -1.94999993  52.39999771
C    19.57999992  -1.42000008  51.45999908
C    20.96999931  -1.50999999  51.68000031
C    21.90999985  -1.18000007  50.65999985
C    23.28000069  -1.28000009  50.80999756
C    23.75999832  -1.74000001  52.06999969
C    22.88000107  -2.09000015  53.06000137
C    21.45999908  -2.06999993  52.90999985
C    17.27000046  -2.11999989  52.30999756
C    16.72999954  -2.80999994  53.43000031
C    15.36999893  -3.12999988  53.40000153
C    25.23999977  -2.00999999  52.25000000
H    25.64495659  -1.73292506  53.22331238
H    21.04999924  -3.30999994  54.55999756
H    19.22000122  -1.11000001  50.47999954
H    21.54000092  -0.86000001  49.68999863
H    23.97000122  -1.02999997  50.00999832
H    23.29000092  -2.66999984  53.88000107
H    14.86999989  -3.49000001  54.29000092
H    25.73999786  -1.42000008  51.47999573
H    25.52000046  -3.05999994  52.09000015
