96

S    17.20000076   1.94999993  57.76000214
C    19.92000008   2.15000010  57.04999924
C    18.63999939   1.75999999  56.72999954
C    18.30000114   1.25999999  55.43000031
C    19.27999878   0.99000001  54.48999786
C    20.61000061   1.41000009  54.75000000
C    21.68999863   1.28999996  53.82999802
C    22.95000076   1.79000008  54.03999710
C    23.19999886   2.39999986  55.28999710
C    22.21999931   2.46000004  56.25000000
C    20.89999962   1.98000002  56.04000092
C    16.86000061   1.18000007  55.24000168
C    16.13999939   1.58999991  56.38999939
C    14.75000000   1.67999995  56.49000168
C    24.63999939   2.71000004  55.65999985
H    25.11886787   1.95953560  56.28895950
H    20.29000092   2.52999997  58.00000000
H    19.09000015   0.48999998  53.54999924
H    21.38000107   0.82999998  52.90000153
H    23.78000069   1.52999997  53.39000320
H    22.39999962   2.98000002  57.18999863
H    14.27999973   1.79000008  57.45999908
H    25.17999840   2.92000008  54.72999954
H    24.65999985   3.61999989  56.27999878
S    13.63000011   0.41999999  52.93000031
C    10.88999939   0.48000002  53.56999969
C    12.20000076   0.74000001  53.92000198
C    12.57999992   1.18000007  55.22999573
C    11.59000015   1.26999998  56.19999695
C    10.24000072   1.00000000  55.87999725
C     9.17000008   1.36000013  56.75000000
C     7.86000013   1.05999994  56.46999741
C     7.50999975   0.75999999  55.13000107
C     8.48999977   0.63000000  54.18000031
C     9.86999989   0.73000002  54.52000046
C    14.01999950   1.33000004  55.34999847
C    14.75000000   0.83999997  54.23999786
C    16.13000107   0.81000000  54.09999847
C     6.07999992   0.39000002  54.79999924
H     5.71716118   0.77418184  53.84666061
H    10.59000015   0.16000001  52.56999969
H    11.84999943   1.53999996  57.22000122
H     9.44000053   1.87000012  57.67000198
H     7.16000032   1.01999998  57.29999924
H     8.25000000   0.23000000  53.20000076
H    16.55999947   0.46000001  53.16999817
H     5.59000015   0.86000001  55.65999985
H     5.95000029  -0.69999999  54.85000229
S    14.27000046  -1.54999995  49.84000397
C    11.64999962  -1.95999992  50.58000183
C    12.97000027  -2.19000006  50.86999893
C    13.45000076  -2.99000001  51.95000076
C    12.55000019  -3.58000016  52.81000137
C    11.17000008  -3.35000014  52.58999634
C    10.18000031  -3.98000002  53.40000153
C     8.84000015  -3.74000025  53.20999908
C     8.40999985  -2.80999994  52.22999954
C     9.32999992  -2.29999995  51.33999634
C    10.72999954  -2.52999997  51.50000000
C    14.88000011  -2.73999977  52.11000061
C    15.47999954  -2.02999997  51.04000092
C    16.81999969  -1.65999997  51.02000427
C     6.94000006  -2.46000004  52.14000320
H     6.45094347  -2.93488073  51.28946686
H    11.28999901  -1.31999993  49.78000259
H    13.01000023  -4.28000021  53.50999832
H    10.60999966  -4.51999998  54.23999786
H     8.11999989  -4.23000002  53.87000275
H     9.07999992  -1.77999997  50.41999817
H    17.30999947  -1.22000003  50.15999603
H     6.51000023  -2.86000013  53.06999969
H     6.84999990  -1.36999989  52.08000183
S    18.11000061  -3.15000010  54.56999969
C    20.75000000  -2.87999988  53.81999969
C    19.44000053  -2.59999990  53.53000259
C    19.00000000  -1.90999997  52.35000229
C    20.00999832  -1.48000002  51.50000000
C    21.38999939  -1.67999995  51.73999786
C    22.36999893  -1.11000001  50.87999725
C    23.68999863  -1.21000004  51.24000168
C    24.06999969  -1.75999999  52.50000000
C    23.11000061  -2.26999998  53.34000015
C    21.73999977  -2.34999990  52.95999908
C    17.56000137  -2.01999998  52.15999985
C    16.98999977  -2.68000007  53.27000046
C    15.67999935  -3.12000012  53.18999863
C    25.55999947  -2.00999999  52.57999802
H    25.93090820  -1.85307705  53.59286499
H    20.93000031  -3.51000023  54.68999863
H    19.60000038  -1.14999998  50.54999924
H    22.07999992  -0.52999997  50.00000000
H    24.37999916  -0.78000003  50.51000214
H    23.29000092  -2.79000020  54.27999878
H    15.25000000  -3.79999995  53.93000031
H    26.17000198  -1.43000007  51.86000061
H    25.72999954  -3.03999996  52.25999832
