96

S    17.56000137   1.95999992  57.70000076
C    20.29000092   1.89999998  57.02999878
C    18.98999977   1.57000005  56.72999954
C    18.60999870   1.21000004  55.38999939
C    19.57999992   0.92000002  54.45999908
C    20.89999962   1.31999993  54.79000092
C    21.90999985   1.15999997  53.80000305
C    23.23999786   1.43000007  54.02000046
C    23.64999962   1.93000007  55.27999878
C    22.70999908   2.10999990  56.26999664
C    21.32999802   1.80000007  56.06999969
C    17.17000008   1.18000007  55.19000244
C    16.46999931   1.64000010  56.32999802
C    15.10000038   1.80000007  56.44000244
C    25.06999969   2.38000011  55.56000137
H    25.59638214   1.76826024  56.29266357
H    20.52000046   2.56000018  57.87000275
H    19.40999985   0.79999995  53.39000320
H    21.59000015   0.75000000  52.84999847
H    24.07999992   1.30999994  53.33000183
H    23.05999947   2.44000006  57.25000000
H    14.63999939   2.24000001  57.31999969
H    25.61000061   2.37000012  54.59999847
H    25.00999832   3.40999985  55.93000031
S    13.90999985   0.43000001  52.87000275
C    11.18999958   0.52999997  53.52000427
C    12.48999977   0.79999995  53.88000107
C    12.86000061   1.33000004  55.15999603
C    11.82000065   1.41000009  56.07999802
C    10.47000027   1.13999999  55.77000046
C     9.48999977   1.15999997  56.79999924
C     8.19000053   0.79000002  56.52000046
C     7.85000038   0.43000001  55.19000244
C     8.76000023   0.45000002  54.15000153
C    10.13000011   0.71000004  54.43999863
C    14.28999996   1.47000003  55.34000015
C    14.96000099   0.97999996  54.19000244
C    16.34000015   0.82999998  54.12000275
C     6.48999977  -0.11000000  54.82999802
H     5.89420891   0.59927481  54.25548553
H    11.03000069   0.11000000  52.52999878
H    12.09000015   1.70000005  57.09000015
H     9.85999966   1.38000000  57.80000305
H     7.39000034   0.81000000  57.25999832
H     8.51000023   0.03000000  53.18000031
H    16.80999947   0.62000000  53.15999985
H     5.92000008  -0.44000000  55.72000122
H     6.61000013  -0.93000001  54.12000275
S    14.21000004  -1.34000003  50.17000198
C    11.54999924  -1.93000007  50.79999924
C    12.89000034  -2.15000010  51.04000092
C    13.30000019  -2.84999990  52.22000122
C    12.32999992  -3.37000012  53.04999924
C    10.93999958  -3.14000010  52.87000275
C     9.89999962  -3.58999991  53.73000336
C     8.56999969  -3.33999991  53.47000122
C     8.22000027  -2.59999990  52.30999756
C     9.18000031  -2.11999989  51.45000076
C    10.54999924  -2.42000008  51.69000244
C    14.73999977  -2.68000007  52.43000031
C    15.36000061  -2.00000000  51.35000229
C    16.70999908  -1.65000010  51.39999771
C     6.78999996  -2.29999995  51.93999863
H     6.47700977  -2.65567064  50.95835114
H    11.31999969  -1.23000002  50.00999832
H    12.64999962  -4.00999975  53.86000061
H    10.14999962  -4.15000010  54.62999725
H     7.78999996  -3.74000025  54.10999680
H     8.97000027  -1.62000000  50.51000214
H    17.13999939  -1.34000003  50.45999908
H     6.11000013  -2.66000009  52.72999573
H     6.70000029  -1.21000004  52.01000214
S    18.01000023  -3.42999983  54.68000031
C    20.72000122  -2.99000001  54.02000046
C    19.37999916  -2.80999994  53.75000000
C    18.95000076  -2.05999994  52.62000275
C    19.89999962  -1.74000001  51.65999985
C    21.28999901  -1.92000008  51.84999847
C    22.32000160  -1.35000002  51.04000092
C    23.62999916  -1.50999999  51.43000031
C    23.97000122  -2.16000009  52.64999771
C    23.03999901  -2.75999999  53.46000290
C    21.68999863  -2.56000018  53.06999969
C    17.50000000  -1.95999992  52.50999832
C    16.87000084  -2.79000020  53.47999954
C    15.52000046  -3.10999990  53.50000000
C    25.45000076  -2.26999998  52.97000122
H    25.81951141  -1.47412848  53.61664581
H    21.01000023  -3.51999998  54.92000198
H    19.63000107  -1.19999993  50.76000214
H    21.91999817  -0.71000004  50.26000214
H    24.41999817  -0.99000001  50.90000153
H    23.28000069  -3.12000012  54.45999908
H    15.01000023  -3.45000005  54.40000153
H    25.88999939  -2.25000000  51.97000122
H    25.62999916  -3.24000001  53.44999695
