96

S    17.43000031   2.26999998  57.62000275
C    20.13000107   2.19000006  56.93000031
C    18.82999992   1.94000006  56.58000183
C    18.48999977   1.39999998  55.30000305
C    19.45999908   1.19999993  54.34000015
C    20.79999924   1.58999991  54.62999725
C    21.80000114   1.53999996  53.61999893
C    23.06999969   1.97000003  53.93000031
C    23.46999931   2.34999990  55.24000168
C    22.50999832   2.32999992  56.23000336
C    21.14000130   2.04999995  55.93999863
C    17.06999969   1.08999991  55.22999573
C    16.38000107   1.63000000  56.33999634
C    15.00000000   1.80999994  56.25000000
C    24.89000130   2.76999998  55.52999878
H    25.33185196   2.12860441  56.29254532
H    20.42000008   2.61999989  57.88999939
H    19.15999985   0.75999999  53.40000153
H    21.64999962   1.00999999  52.69000244
H    23.82999802   1.88999999  53.15999985
H    22.73999977   2.68000007  57.22999954
H    14.50000000   2.07999992  57.16999817
H    25.45999908   2.57999992  54.61000061
H    25.00999832   3.82999992  55.79999924
S    13.94000053   0.56999999  52.67000198
C    11.21999931   0.48000002  53.39000320
C    12.51999950   0.78000003  53.70999908
C    12.88000011   1.26999998  55.00999832
C    11.90000057   1.43000007  55.97000122
C    10.57999992   0.97999996  55.72999954
C     9.57999992   1.19000006  56.70999908
C     8.30999947   0.81000000  56.35000229
C     7.96999979   0.27000001  55.07999802
C     8.93000031   0.03000000  54.13000107
C    10.26000023   0.43000001  54.43000031
C    14.32000065   1.43000007  55.08999634
C    15.06999969   0.99000001  53.95999908
C    16.44000053   0.74000001  54.02999878
C     6.50000000   0.01000000  54.82999802
H     6.06073380   0.60513520  54.02939987
H    10.98000050   0.28000000  52.35000229
H    12.05000019   1.88999999  56.93999863
H     9.76000023   1.54999995  57.71999741
H     7.53999996   1.02999997  57.09999847
H     8.61999989  -0.37000000  53.16999817
H    16.94000053   0.46000001  53.11000061
H     5.96000004   0.29999998  55.73999786
H     6.32000017  -1.04999995  54.61000061
S    14.11000061  -1.34000003  50.00000000
C    11.44000053  -1.82999992  50.59000015
C    12.76000023  -2.02999997  50.91999817
C    13.17000008  -2.82999992  52.02999878
C    12.18000031  -3.25000000  52.90000153
C    10.80999947  -3.12000012  52.57999802
C     9.82999992  -3.63000011  53.48999786
C     8.50000000  -3.45000005  53.20000076
C     8.13000011  -2.76999998  52.02000046
C     9.02999973  -2.21000004  51.13999939
C    10.42000008  -2.37000012  51.40999603
C    14.61999989  -2.82999992  52.15000153
C    15.26000023  -2.06999993  51.13999939
C    16.61000061  -1.75000000  51.07999802
C     6.65999985  -2.56000018  51.72999954
H     6.33200741  -2.89512277  50.74602127
H    11.23000050  -1.36000013  49.62999725
H    12.48999977  -3.81000018  53.77999878
H    10.06999969  -4.26000023  54.33000183
H     7.76999998  -3.89999986  53.88000107
H     8.80999947  -1.54999995  50.30000305
H    17.04000092  -1.05999994  50.35999680
H     6.12999964  -3.25000000  52.39999771
H     6.32999992  -1.51999998  51.91999817
S    17.87999916  -3.19999981  54.55999756
C    20.55999947  -2.75999999  53.80000305
C    19.22000122  -2.56999993  53.57999802
C    18.78999901  -1.87000012  52.41000366
C    19.67000008  -1.21000004  51.56000137
C    21.05999947  -1.35000002  51.79000092
C    22.04000092  -0.82000005  50.90000153
C    23.38000107  -0.93999994  51.17000198
C    23.75000000  -1.71000004  52.30999756
C    22.85000038  -2.17999983  53.23999786
C    21.45999908  -2.01999998  52.98999786
C    17.36999893  -2.11999989  52.18999863
C    16.72999954  -2.75999999  53.27999878
C    15.42000008  -3.21000004  53.22999954
C    25.22000122  -2.03999996  52.39999771
H    25.66621971  -1.72127259  53.34201813
H    20.95999908  -3.31999993  54.64000320
H    19.40999985  -0.79999995  50.59000015
H    21.64999962  -0.39999998  49.98000336
H    24.15999985  -0.64000005  50.47999954
H    23.13999939  -2.75999999  54.12000275
H    15.01000023  -3.75999975  54.08000183
H    25.72000122  -1.56000006  51.55000305
H    25.29000092  -3.12000012  52.21000290
