96

S    17.40999985   2.00999999  57.61000061
C    20.09000015   2.03999996  56.88999939
C    18.79999924   1.70000005  56.56000137
C    18.46999931   1.34000003  55.20999908
C    19.52000046   1.25000000  54.31000137
C    20.86999893   1.52999997  54.61999893
C    21.93000031   1.52999997  53.68000031
C    23.22000122   1.72000003  54.10999680
C    23.47999954   2.25999999  55.40000153
C    22.50000000   2.25000000  56.35000229
C    21.15999985   1.95999992  55.96000290
C    17.02999878   1.28999996  55.07999802
C    16.31999969   1.61000001  56.25999832
C    14.93999958   1.71000004  56.38000107
C    24.86000061   2.82000017  55.65999985
H    25.41449165   2.10200500  56.26425552
H    20.31999969   2.31999993  57.91999817
H    19.09000015   1.02999997  53.33000183
H    21.76000214   1.10000002  52.69000244
H    24.00000000   1.42000008  53.40999985
H    22.65000153   2.72000027  57.31999969
H    14.57999992   1.95999992  57.37999725
H    25.40999985   3.07000017  54.75000000
H    24.68000031   3.79999995  56.11999893
S    13.68000031   0.56000000  52.80000305
C    11.00000000   0.68000007  53.61999893
C    12.32999992   0.96000004  53.87000275
C    12.74000072   1.52999997  55.12000275
C    11.80999947   1.65000010  56.12999725
C    10.46000004   1.25000000  55.97999954
C     9.48999977   1.15999997  57.02000046
C     8.21000004   0.75999999  56.72999954
C     7.78999996   0.43000001  55.41999817
C     8.73000050   0.39999998  54.41999817
C    10.05000019   0.88000000  54.65000153
C    14.19000053   1.48000002  55.21999741
C    14.85000038   1.04999995  54.03999710
C    16.23999977   0.97999996  53.95999908
C     6.32999992   0.17999999  55.11000061
H     5.89021254   0.78293443  54.31554794
H    10.72000027   0.35999998  52.62000275
H    12.07999992   1.69000006  57.18000031
H     9.68999958   1.35000002  58.06999969
H     7.42999983   0.83999997  57.48000336
H     8.39999962   0.16000001  53.40999985
H    16.79000092   0.64999998  53.08000183
H     5.71000004   0.34999999  56.00000000
H     6.11000013  -0.82999998  54.75000000
S    14.57999992  -1.22000003  50.13999939
C    11.94000053  -1.82999992  50.86000061
C    13.27999973  -2.03999996  51.03000259
C    13.78999901  -2.80999994  52.12999725
C    12.90999985  -3.40000010  53.02000046
C    11.51000023  -3.26999998  52.87000275
C    10.57000065  -3.77999997  53.81000137
C     9.22000027  -3.58000016  53.66000366
C     8.76999950  -2.72000027  52.63000107
C     9.63999939  -2.26999998  51.65999985
C    11.05000019  -2.48000002  51.75000000
C    15.21999931  -2.56000018  52.30999756
C    15.81999969  -1.86000001  51.24000168
C    17.15999985  -1.50999999  51.18999863
C     7.28999996  -2.61000013  52.34000397
H     6.91900444  -3.10228276  51.44104767
H    11.57999992  -1.14999998  50.08999634
H    13.30000019  -3.88999987  53.89999771
H    10.95999908  -4.38000011  54.64000320
H     8.61999989  -4.09000015  54.40999985
H     9.26999950  -1.65999997  50.84999847
H    17.59000015  -1.05999994  50.30000305
H     6.83000040  -2.73000002  53.33000183
H     7.14999962  -1.51999998  52.30999756
S    18.50000000  -3.02999997  54.61000061
C    21.15999985  -2.50999975  53.93000031
C    19.82999992  -2.29999995  53.68000031
C    19.40000153  -1.72000003  52.44999695
C    20.29999924  -1.38000000  51.45999908
C    21.68999863  -1.51999998  51.65999985
C    22.70000076  -1.07000005  50.76000214
C    23.97999954  -0.97000003  51.23000336
C    24.31999969  -1.31999993  52.56999969
C    23.44000053  -2.03999996  53.34000015
C    22.06999969  -2.02999997  52.95000076
C    17.94999886  -1.72999990  52.32999802
C    17.34000015  -2.46000004  53.39000320
C    16.01000023  -2.84000015  53.43000031
C    25.75000000  -1.02999997  52.97000122
H    26.10684204  -1.73654807  53.71936798
H    21.47999954  -3.07999992  54.79999924
H    20.00999832  -0.82999998  50.56000137
H    22.44999886  -0.55000001  49.84000397
H    24.75000000  -0.50000000  50.61999893
H    23.78999901  -2.50000000  54.26000214
H    15.52000046  -3.26999998  54.29999924
H    25.90999985   0.00000000  53.30999756
H    26.35000038  -1.19000006  52.05999756
