96

S    17.52000046   1.94000006  57.44999695
C    20.25000000   2.13000011  56.95999908
C    19.03000069   1.61000001  56.58000183
C    18.76000023   1.00000000  55.31000137
C    19.84000015   1.01999998  54.45000076
C    21.12999916   1.44999993  54.85000229
C    22.20999908   1.21000004  53.95999908
C    23.50000000   1.62000000  54.26000214
C    23.74000168   2.14000010  55.56000137
C    22.72999954   2.39999986  56.44000244
C    21.37000084   2.10999990  56.10000229
C    17.34000015   0.78000003  55.07999802
C    16.54000092   1.15999997  56.18999863
C    15.15999985   1.26999998  56.19999695
C    25.13000107   2.63000011  55.90999985
H    25.66339302   1.96859407  56.59273911
H    20.30999947   2.66999984  57.90000153
H    19.84000015   0.35999998  53.57999802
H    22.03000069   0.74000001  53.00000000
H    24.20999908   1.64000010  53.43999863
H    22.92000008   2.82000017  57.43000031
H    14.56999969   1.76999998  56.97000122
H    25.78000069   2.80999994  55.04000092
H    24.97999954   3.58000016  56.44000244
S    14.06000042   0.29999998  52.58999634
C    11.28000069   0.38000000  53.34999847
C    12.61999989   0.56000000  53.60000229
C    13.04999924   1.11000001  54.85000229
C    12.13999939   1.49000001  55.81999969
C    10.77000046   1.22000003  55.59999847
C     9.77000046   1.30999994  56.60999680
C     8.43999958   1.01999998  56.43000031
C     8.01000023   0.48000002  55.18000031
C     8.93999958   0.32999998  54.19000244
C    10.31999969   0.67000002  54.34999847
C    14.48999977   1.00999999  55.00000000
C    15.25000000   0.67000002  53.85000229
C    16.62999916   0.46000001  53.92000198
C     6.58999968  -0.01000000  55.00999832
H     6.08458233   0.54524761  54.21983719
H    10.93999958   0.07000000  52.36000061
H    12.51000023   1.75999999  56.81000137
H    10.14000034   1.56000006  57.60000229
H     7.73999977   1.07000005  57.25000000
H     8.55000019  -0.19999999  53.31999969
H    17.19000053   0.19999999  53.02999878
H     6.05999994   0.08000001  55.97000122
H     6.74000025  -1.07000005  54.75999832
S    17.94999886   2.33999991  51.77000046
C    20.69999886   2.63999987  51.06999969
C    19.42000008   2.22000003  50.77999878
C    19.07999992   1.76999998  49.47000122
C    20.10000038   1.63000000  48.54999924
C    21.45000076   2.00000000  48.80000305
C    22.56000137   1.84000003  47.93000031
C    23.80000114   2.34999990  48.25000000
C    24.02000046   3.08999991  49.43999863
C    22.98000145   3.19000006  50.34000015
C    21.68999863   2.66000009  50.06000137
C    17.65999985   1.51999998  49.26000214
C    16.92000008   2.01999998  50.37000275
C    15.52999973   2.10999990  50.40999985
C    25.39999962   3.45000005  49.95999908
H    25.83430672   2.65970516  50.57229996
H    21.04999924   3.10999990  51.97999954
H    19.78999901   1.13999999  47.63999939
H    22.29000092   1.41000009  46.97000122
H    24.61999893   2.04999995  47.61000061
H    23.18000031   3.60000014  51.31999969
H    14.98000050   2.28999996  51.32999802
H    26.18000031   3.63000011  49.20999908
H    25.29000092   4.33999968  50.58000183
S    14.46000004   1.04999995  46.73999786
C    11.72000027   0.86000001  47.36000061
C    13.00000000   1.24000001  47.70999908
C    13.38999939   1.54999995  49.05000305
C    12.32999992   1.69000006  49.93999863
C    10.98000050   1.50000000  49.58000183
C     9.94999981   1.75000000  50.54000092
C     8.67999935   1.34000003  50.24000168
C     8.34999943   0.79000002  48.96999741
C     9.31999969   0.55000001  48.02000046
C    10.65000057   0.97999996  48.27999878
C    14.80000019   1.82999992  49.25000000
C    15.52000046   1.31999993  48.13999939
C    16.88999939   1.10000002  48.16999817
C     7.03000021   0.14999999  48.61999893
H     6.56159163   0.68937963  47.79673386
H    11.46000004   0.39999998  46.40999603
H    12.55000019   2.03999996  50.93999863
H    10.27999973   2.06999993  51.52999878
H     7.97999954   1.53999996  51.04000092
H     9.06000042   0.04000000  47.09999847
H    17.40999985   0.90000004  47.23999786
H     6.42000008   0.19999999  49.52999878
H     7.26000023  -0.88000000  48.34999847
