96

S    17.43999863   1.80000007  57.81000137
C    20.17999840   1.69000006  57.22999954
C    18.88000107   1.46000004  56.83000183
C    18.50000000   0.96000004  55.54000092
C    19.51000023   0.82999998  54.61000061
C    20.81000137   1.25999999  54.98000336
C    21.87999916   1.25000000  54.03999710
C    23.15999985   1.62000000  54.38999939
C    23.45999908   2.02999997  55.70999908
C    22.56000137   1.94000006  56.75000000
C    21.24000168   1.65000010  56.30000305
C    17.05999947   0.76999998  55.40000153
C    16.35000038   1.28999996  56.51000214
C    14.98000050   1.51999998  56.50000000
C    24.89000130   2.39999986  56.04000092
H    25.31713295   1.61692381  56.66645813
H    20.45999908   2.13000011  58.18999863
H    19.32999992   0.50000000  53.59000397
H    21.61999893   0.90999997  53.04000092
H    23.95999908   1.56000006  53.66000366
H    22.79999924   2.02999997  57.80000305
H    14.46000004   1.86000001  57.39999771
H    25.48000145   2.64999986  55.14999771
H    24.93999863   3.33999991  56.59000015
S    13.83999920   0.12000000  52.98999786
C    11.10999966   0.29999998  53.67000198
C    12.42000008   0.61000001  53.94000244
C    12.79999924   1.02999997  55.25000000
C    11.79999924   1.16999996  56.18999863
C    10.44999981   0.85000002  55.90999985
C     9.43000031   1.07000005  56.88999939
C     8.14000034   0.71000004  56.58000183
C     7.76999998   0.19999999  55.31000137
C     8.69999981   0.07000000  54.29000092
C    10.03999901   0.45000002  54.59000015
C    14.23999977   1.19000006  55.35999680
C    14.96999931   0.69999999  54.23999786
C    16.35000038   0.55000001  54.22000122
C     6.30000019   0.00000000  55.01999664
H     6.00777006   0.42052576  54.05778122
H    10.90999985  -0.28999999  52.77999878
H    12.05999947   1.59999990  57.15000153
H     9.70000076   1.57000005  57.81000137
H     7.42000008   0.96000004  57.34000397
H     8.48999977  -0.14000000  53.25000000
H    16.77000046   0.09000000  53.33000183
H     5.78999996   0.62000000  55.77000046
H     5.88999987  -0.99000001  55.24000168
S    14.09999943  -1.50999999  49.93999863
C    11.39999962  -2.02999997  50.61000061
C    12.75000000  -2.16000009  50.87999725
C    13.17999935  -2.99000001  51.95999908
C    12.23000050  -3.50000000  52.83000183
C    10.85999966  -3.19999981  52.67000198
C     9.81999969  -3.65000010  53.54000092
C     8.50000000  -3.61999989  53.15999985
C     8.10000038  -2.91000009  52.00000000
C     9.03999996  -2.33999991  51.17000198
C    10.40999985  -2.43000007  51.53999710
C    14.61999989  -2.91000009  52.15000153
C    15.25000000  -2.09999990  51.16000366
C    16.54000092  -1.62000000  51.30000305
C     6.61999989  -2.75999999  51.70999908
H     6.28384686  -3.48237133  50.96617126
H    11.13000011  -1.64000010  49.64000320
H    12.46000099  -4.11999989  53.69999695
H    10.11999989  -4.25000000  54.38999939
H     7.76999998  -4.03999996  53.83999634
H     8.60000038  -1.87000012  50.28999710
H    16.97999954  -0.88000000  50.63999939
H     6.15000010  -2.91000009  52.69000244
H     6.34999990  -1.75000000  51.37000275
S    17.93000031  -3.51000023  54.52000046
C    20.55999947  -2.70000005  54.09000015
C    19.22999954  -2.52999997  53.80000305
C    18.71999931  -1.87000012  52.63000107
C    19.63000107  -1.23000002  51.81000137
C    21.01000023  -1.46000004  51.95000076
C    21.93000031  -1.08999991  50.93000031
C    23.28000069  -1.22000003  51.17000198
C    23.68999863  -1.95999992  52.30999756
C    22.84000015  -2.49000001  53.25000000
C    21.45999908  -2.16999984  53.11999893
C    17.31999969  -2.13000011  52.34000397
C    16.72999954  -2.96999979  53.31999969
C    15.39000034  -3.30999994  53.25000000
C    25.17999840  -2.11999989  52.55000305
H    25.49191666  -1.70174837  53.50701523
H    20.94000053  -3.26999998  54.93000031
H    19.25000000  -0.73000002  50.91999817
H    21.57999992  -0.61000001  50.01999664
H    24.00000000  -0.61000001  50.63000107
H    23.15000153  -2.94999981  54.18000031
H    14.89999962  -3.86000013  54.03999710
H    25.71000099  -1.56000006  51.77000046
H    25.56999969  -3.14000010  52.56000137
