96

S    17.35999870   2.23000002  57.65999603
C    20.07999802   2.48000002  56.79999924
C    18.77000046   2.10999990  56.58000183
C    18.44000053   1.58000004  55.28999710
C    19.40999985   1.42000008  54.31999969
C    20.72999954   1.87000012  54.55999756
C    21.73999977   1.77999997  53.54999924
C    23.02000046   2.22000003  53.80000305
C    23.36000061   2.77999997  55.06000137
C    22.39000130   2.99000001  56.02000427
C    21.07000160   2.52999997  55.79000092
C    17.00000000   1.43000007  55.13000107
C    16.29999924   1.77999997  56.31000137
C    14.91000080   1.82999992  56.31999969
C    24.77999878   3.12999988  55.43000031
H    25.29049301   2.42807150  56.08938980
H    20.38000107   2.77999997  57.80000305
H    19.11999893   0.85000002  53.43999863
H    21.42000008   1.49000001  52.55000305
H    23.78999901   1.94000006  53.09000015
H    22.52000046   3.48000002  56.97999954
H    14.27999973   2.07999992  57.16999817
H    25.34000015   3.09999990  54.48999786
H    24.71999931   4.13000011  55.86999893
S    13.81999969   0.75000000  52.63000107
C    11.14999962   0.38000000  53.40999985
C    12.42000008   0.79999995  53.73000336
C    12.79999924   1.15999997  55.06000137
C    11.79999924   1.38000000  55.97999954
C    10.43000031   1.24000001  55.63999939
C     9.35000038   1.50000000  56.52999878
C     8.02999973   1.24000001  56.23000336
C     7.77999973   0.52999997  55.01999664
C     8.78999996   0.25999999  54.12000275
C    10.14999962   0.56000000  54.40000153
C    14.22999954   1.38999999  55.17000198
C    14.93000031   1.13999999  53.95999908
C    16.31999969   1.14999998  53.94000244
C     6.38000011   0.07000000  54.68000031
H     5.88121223   0.64004362  53.89618683
H    10.95999908   0.14000000  52.36999893
H    12.15999985   1.62000000  56.97999954
H     9.63000011   1.85000002  57.50999832
H     7.27999973   1.51999998  56.95999908
H     8.63000011  -0.32999998  53.22000122
H    16.82999992   0.78000003  53.06000137
H     5.77000046   0.01000000  55.59000015
H     6.48000002  -1.00000000  54.48999786
S    14.23999977  -1.01999998  49.86999893
C    11.64000034  -1.95999992  50.30000305
C    12.97999954  -2.00999999  50.63000107
C    13.34000015  -2.61999989  51.88000107
C    12.35000038  -3.12000012  52.70000076
C    10.98000050  -3.08999991  52.35000229
C     9.89999962  -3.42999983  53.22000122
C     8.60000038  -3.10999990  52.94000244
C     8.19999981  -2.54999995  51.69000244
C     9.22999954  -2.23000002  50.84999847
C    10.60999966  -2.51999998  51.07999802
C    14.73999977  -2.37000012  52.15999985
C    15.32999992  -1.56000006  51.16000366
C    16.69999886  -1.29999995  51.05999756
C     6.72999954  -2.21000004  51.52999878
H     6.31089783  -2.83510160  50.74151611
H    11.36999989  -1.24000001  49.52000046
H    12.60000038  -3.37000012  53.73000336
H    10.17000008  -3.91999984  54.15000153
H     7.82999992  -3.48000002  53.61000061
H     9.15999985  -1.69000006  49.91000366
H    17.01000023  -0.57999998  50.31999969
H     6.14000034  -2.30999994  52.44999695
H     6.69000053  -1.13000000  51.33999634
S    18.15999985  -3.00000000  54.38000107
C    20.79999924  -2.21000004  53.82999802
C    19.47000122  -2.19000006  53.47999954
C    18.95000076  -1.65000010  52.25999832
C    19.90999985  -1.15999997  51.38999939
C    21.28999901  -1.12000000  51.66999817
C    22.30999947  -0.56000000  50.84000015
C    23.64000130  -0.64000005  51.16000366
C    24.10000038  -1.38999999  52.28000259
C    23.12999916  -1.84000003  53.15000153
C    21.73999977  -1.65000010  52.93000031
C    17.51000023  -1.80000007  52.08000183
C    16.95999908  -2.53999996  53.15999985
C    15.60999966  -2.89000010  53.13000107
C    25.52000046  -1.86000001  52.45999908
H    25.89057541  -1.59632123  53.45057678
H    21.18999863  -2.79999995  54.65000153
H    19.57999992  -0.65999997  50.47999954
H    21.97000122  -0.16000001  49.88999939
H    24.37000084  -0.48000002  50.37000275
H    23.42000008  -2.42000008  54.02000046
H    15.26000023  -3.71000004  53.75000000
H    26.02999878  -1.29999995  51.66999817
H    25.62000084  -2.94000006  52.27000427
