96

S    17.78000069   2.01999998  57.48000336
C    20.51000214   2.06999993  56.97000122
C    19.23999977   1.89999998  56.47999573
C    18.92000008   1.41000009  55.17000198
C    20.00000000   1.19000006  54.33000183
C    21.31999969   1.46000004  54.75999832
C    22.40999985   1.36999989  53.85000229
C    23.71000099   1.58000004  54.25000000
C    23.97000122   2.13000011  55.54000092
C    22.95000076   2.25000000  56.45000076
C    21.61999893   1.88999999  56.10000229
C    17.48999977   1.30999994  54.89999771
C    16.76000023   1.63000000  56.07999802
C    15.36999893   1.64000010  56.10000229
C    25.38999939   2.38999987  55.96000290
H    25.69646454   1.89110386  56.87939453
H    20.65000153   2.31999993  58.02000046
H    19.89999962   0.64000005  53.40000153
H    22.03000069   0.99000001  52.90000153
H    24.54999924   1.46000004  53.57999802
H    23.15000153   2.75000000  57.39999771
H    14.78999996   1.95999992  56.95000076
H    26.04999924   1.95999992  55.20000076
H    25.52000046   3.48000002  55.98999786
S    14.27000046   0.37000000  52.58999634
C    11.54999924   0.03000000  53.36999893
C    12.84999943   0.35999998  53.66000366
C    13.23999977   0.97999996  54.88999939
C    12.22000027   1.19000006  55.79999924
C    10.85999966   0.88999999  55.54000092
C     9.81999969   1.07000005  56.49000168
C     8.48999977   0.93000001  56.16000366
C     8.11999989   0.32000002  54.93000031
C     9.11000061   0.11000000  54.00000000
C    10.48999977   0.34999999  54.26000214
C    14.67000008   1.25999999  54.94999695
C    15.43000031   0.96000004  53.80000305
C    16.81999969   0.90000004  53.75000000
C     6.67999983  -0.05000000  54.64000320
H     6.20872545   0.58550662  53.89024734
H    11.28999901  -0.51999998  52.47000122
H    12.53999901   1.50999999  56.79000092
H    10.06999969   1.43000007  57.49000168
H     7.68000031   1.33000004  56.77000046
H     8.88000011  -0.29999998  53.02999878
H    17.36999893   0.55000001  52.88000107
H     6.05000019   0.03000000  55.54000092
H     6.67999983  -1.12000000  54.38000107
S    18.38000107   2.50999975  51.60999680
C    21.11999893   2.39999986  50.79999924
C    19.78999901   2.13000011  50.59000015
C    19.34999847   1.56000006  49.34999847
C    20.31999969   1.46000004  48.36999893
C    21.68999863   1.75000000  48.54000092
C    22.65999985   1.65999997  47.50000000
C    23.92000008   2.15000010  47.74000168
C    24.34999847   2.50999975  49.05000305
C    23.47999954   2.53999996  50.11000061
C    22.13000107   2.17999983  49.82999802
C    17.89999962   1.48000002  49.23999786
C    17.21999931   2.04999995  50.34999847
C    15.84000015   2.16999984  50.44000244
C    25.81000137   2.71000004  49.38000107
H    26.19381523   2.06320238  50.16894913
H    21.37000084   2.99000001  51.68000031
H    20.00999832   1.00999999  47.43000031
H    22.43000031   1.38000000  46.46999741
H    24.64999962   2.11999989  46.93999863
H    23.81000137   2.82000017  51.11000061
H    15.31999969   2.61000013  51.29000092
H    26.27000046   2.51999998  48.40999985
H    25.95000076   3.76999998  49.62999725
S    14.63999939   0.76999998  46.95000076
C    11.92999935   0.59999996  47.71999741
C    13.22999954   0.90999997  48.02999878
C    13.57999992   1.52999997  49.27000046
C    12.57999992   1.75000000  50.20000076
C    11.23999977   1.42000008  49.91000366
C    10.19000053   1.62000000  50.84999847
C     8.88000011   1.33000004  50.56000137
C     8.56999969   0.67000002  49.34000015
C     9.53999996   0.41000003  48.40999985
C    10.88000107   0.82000005  48.64999771
C    15.01000023   1.80000007  49.36999893
C    15.72000027   1.31999993  48.23999786
C    17.09000015   1.11000001  48.15999985
C     7.11999989   0.31000000  49.10999680
H     6.59447956   1.01306129  48.46375275
H    11.78999996  -0.05000000  46.86000061
H    12.76000023   2.25000000  51.14999771
H    10.53999996   2.09000015  51.77000046
H     8.10999966   1.65999997  51.25000000
H     9.36999989  -0.03000000  47.43000031
H    17.47999954   0.67000002  47.23999786
H     6.57000017   0.14000000  50.04000092
H     7.21000004  -0.65999997  48.60000229
