96

S    17.82999992   2.11999989  57.62000275
C    20.55000114   1.99000001  57.05999756
C    19.26000023   1.75000000  56.63999939
C    18.84000015   1.16999996  55.40000153
C    19.88999939   0.93000001  54.52999878
C    21.22999954   1.23000002  54.85000229
C    22.29000092   1.12000000  53.89999771
C    23.59999847   1.43000007  54.20999908
C    23.97999954   1.70000005  55.54999924
C    22.95999908   2.06999993  56.38999939
C    21.60000038   1.75000000  56.13999939
C    17.39999962   1.10000002  55.22999573
C    16.69999886   1.65999997  56.32999802
C    15.31999969   1.76999998  56.38999939
C    25.43000031   1.99000001  55.87999725
H    25.70774269   1.59119117  56.85565567
H    20.84000015   2.50999975  57.97000122
H    19.65999985   0.43000001  53.59000397
H    21.98999786   0.73000002  52.93000031
H    24.37000084   1.25999999  53.46000290
H    23.28000069   2.32999992  57.39999771
H    14.77000046   2.02999997  57.29000092
H    26.14000130   1.62000000  55.13000107
H    25.53999901   3.07999992  56.00999832
S    14.19999981   0.68000007  52.70999908
C    11.46999931   0.69999999  53.36000061
C    12.77999973   0.82999998  53.75999832
C    13.10999966   1.21000004  55.08999634
C    12.05000019   1.41000009  55.96000290
C    10.69000053   1.19000006  55.61999893
C     9.64999962   1.11000001  56.58000183
C     8.36000061   0.71999997  56.30000305
C     8.05000019   0.44000000  54.93999863
C     9.04999924   0.39000002  54.00000000
C    10.39000034   0.78000003  54.27999878
C    14.55000019   1.30999994  55.31000137
C    15.24000072   0.93999994  54.13000107
C    16.61000061   0.69000000  54.15000153
C     6.67000008  -0.11000000  54.65000153
H     6.22758198   0.54649168  53.90074539
H    11.26000023   0.44000000  52.31999969
H    12.38000011   1.75000000  56.93000031
H     9.92000008   1.10000002  57.63999939
H     7.69000006   0.44000000  57.11000061
H     8.82999992  -0.09999999  53.04999924
H    17.12000084   0.46000001  53.22000122
H     6.05000019  -0.27000001  55.54000092
H     6.84999990  -1.14999998  54.36000061
S    14.02999973  -1.35000002  49.87999725
C    11.33999920  -1.80000007  50.45000076
C    12.65999985  -1.99000001  50.79999924
C    13.12999916  -2.66000009  51.97000122
C    12.20000076  -3.15000010  52.88000107
C    10.84000015  -2.87999988  52.60000229
C     9.84000015  -3.50000000  53.40000153
C     8.51000023  -3.40999985  53.06999969
C     8.07999992  -2.80999994  51.86000061
C     9.01000023  -2.17999983  51.04999924
C    10.38000011  -2.21000004  51.40999603
C    14.56999969  -2.57999992  52.18000031
C    15.19999981  -1.94999993  51.07999802
C    16.56999969  -1.74000001  51.04999924
C     6.63000011  -2.68000007  51.45000076
H     6.39502764  -3.47748232  50.74508286
H    11.00000000  -1.43000007  49.47999954
H    12.51999950  -3.86999989  53.62999725
H    10.15999985  -4.09000015  54.26000214
H     7.81000042  -4.03999996  53.61000061
H     8.69000053  -1.74000001  50.11000061
H    17.10000038  -1.34000003  50.20000076
H     6.01999998  -2.71000004  52.36000061
H     6.56000042  -1.67999995  51.00000000
S    17.85000038  -3.25000000  54.51000214
C    20.55000114  -2.75000000  53.92000198
C    19.22000122  -2.64999986  53.55999756
C    18.77000046  -1.99000001  52.37999725
C    19.72999954  -1.41000009  51.56999969
C    21.11000061  -1.52999997  51.88000107
C    22.11999893  -1.08999991  50.97999954
C    23.45999908  -1.28999996  51.22000122
C    23.85000038  -2.00999999  52.37999725
C    22.93000031  -2.46000004  53.29999924
C    21.54999924  -2.24000001  53.04999924
C    17.32999992  -2.11999989  52.15999985
C    16.69000053  -2.73000002  53.27000046
C    15.32999992  -3.01999998  53.27000046
C    25.28000069  -2.49000001  52.49000168
H    25.74393463  -2.17595196  53.42501068
H    20.79999924  -3.19000006  54.87999725
H    19.47999954  -0.90999997  50.63999939
H    21.77000046  -0.61000001  50.06000137
H    24.21999931  -1.10000002  50.47000122
H    23.29999924  -3.10999990  54.09999847
H    14.86999989  -3.51000023  54.12000275
H    25.79999924  -1.95999992  51.68000031
H    25.26000023  -3.58000016  52.35000229
