96

S    17.32999992   2.50000000  57.57999802
C    20.06000137   2.56999993  56.88999939
C    18.77000046   2.16000009  56.59999847
C    18.40999985   1.56000006  55.35999680
C    19.42000008   1.34000003  54.43999863
C    20.78000069   1.61000001  54.71000290
C    21.83000183   1.22000003  53.82999802
C    23.13999939   1.43999994  54.19000244
C    23.45999908   2.06999993  55.43000031
C    22.44999886   2.51999998  56.24000168
C    21.07999992   2.23000002  55.97000122
C    16.95999908   1.44999993  55.20000076
C    16.22999954   1.93000007  56.31999969
C    14.85000038   2.04999995  56.38999939
C    24.89999962   2.34999990  55.77000046
H    25.32675934   1.68852425  56.52394104
H    20.36000061   3.05999994  57.81000137
H    19.10000038   0.90000004  53.48999786
H    21.54000092   0.86000001  52.84999847
H    23.97000122   1.16999996  53.54999924
H    22.59000015   2.93000007  57.23999786
H    14.32000065   2.31999993  57.30999756
H    25.46999931   2.31999993  54.84000397
H    25.02000046   3.33999991  56.24000168
S    13.68000031   0.79000002  52.85999680
C    10.98000050   0.69999999  53.50999832
C    12.27000046   0.94999999  53.93000031
C    12.67000008   1.50000000  55.19000244
C    11.64999962   1.58999991  56.11000061
C    10.29000092   1.28000009  55.83000183
C     9.26000023   1.44999993  56.79000092
C     7.94000053   1.25999999  56.45999908
C     7.60999966   0.93000001  55.12000275
C     8.59000015   0.69000000  54.19000244
C     9.96000004   0.93000001  54.47000122
C    14.11000061   1.71000004  55.26000214
C    14.82999992   1.21000004  54.13999939
C    16.21999931   1.05999994  54.08000183
C     6.15000010   0.67000002  54.80999756
H     5.72081232   1.39961958  54.12329865
H    10.71000004   0.25000000  52.56000137
H    11.73999977   1.88999999  57.15000153
H     9.50000000   1.62000000  57.84000015
H     7.23000002   1.24000001  57.28000259
H     8.32999992   0.22000000  53.23999786
H    16.64999962   0.85000002  53.11000061
H     5.40999985   0.64000005  55.61999893
H     6.12999964  -0.32999998  54.36000061
S    13.96999931  -1.26999998  49.64000320
C    11.30000019  -1.69000006  50.47999954
C    12.64999962  -1.90999997  50.63999939
C    13.09999943  -2.64999986  51.77999878
C    12.18000031  -3.16000009  52.68000031
C    10.78999996  -3.02999997  52.49000168
C     9.78999996  -3.52999973  53.37999725
C     8.47000027  -3.23000002  53.15000153
C     8.02999973  -2.43000007  52.05999756
C     8.96000004  -1.93000007  51.18000031
C    10.34000015  -2.21000004  51.38999939
C    14.53999996  -2.54999995  51.93000031
C    15.11999989  -1.76999998  50.90000153
C    16.46999931  -1.43999994  50.91999817
C     6.57999992  -2.39999986  51.62000275
H     6.47300243  -3.14898300  50.83535385
H    11.06999969  -1.08000004  49.61000061
H    12.55000019  -3.63000011  53.59000397
H    10.07999992  -4.15999985  54.20999908
H     7.65999985  -3.75000000  53.63999939
H     8.69000053  -1.36999989  50.28999710
H    16.87000084  -0.82999998  50.12000275
H     5.93999958  -2.72000027  52.45999908
H     6.21999979  -1.41000009  51.31999969
S    17.77000046  -2.94999981  54.45000076
C    20.36000061  -2.34999990  53.83999634
C    19.04000092  -2.19000006  53.47999954
C    18.64999962  -1.56000006  52.25999832
C    19.64999962  -1.05999994  51.45000076
C    21.01000023  -1.28000009  51.77999878
C    22.04000092  -0.99000001  50.84999847
C    23.38000107  -1.13000000  51.11000061
C    23.78000069  -1.69000006  52.36000061
C    22.80999947  -2.11999989  53.23999786
C    21.42000008  -1.89999998  53.02000046
C    17.21999931  -1.74000001  52.06999969
C    16.68000031  -2.53999996  53.11000061
C    15.34999943  -2.94999981  53.00000000
C    25.23999977  -2.02999997  52.56999969
H    25.56844902  -1.80151343  53.58391190
H    20.58000183  -2.92000008  54.73999786
H    19.34000015  -0.82000005  50.44000244
H    21.77999878  -0.52999997  49.89999771
H    24.13000107  -0.88999999  50.35999680
H    23.16999817  -2.64999986  54.12000275
H    14.93000031  -3.54999995  53.80000305
H    25.81999969  -1.42000008  51.86000061
H    25.45999908  -3.07000017  52.32999802
