96

S    18.01000023   2.23000002  57.71999741
C    20.72999954   2.23000002  57.04000092
C    19.43000031   1.89999998  56.70999908
C    19.03000069   1.36999989  55.44000244
C    20.00000000   1.11000001  54.50000000
C    21.35999870   1.39999998  54.78000259
C    22.34000015   1.30999994  53.75000000
C    23.64999962   1.62000000  54.02999878
C    24.05999947   1.95999992  55.34000015
C    23.08000183   2.30999994  56.24000168
C    21.68999863   2.06999993  56.00999832
C    17.57999992   1.28999996  55.27999878
C    16.87999916   1.75000000  56.43000031
C    15.51000023   1.94000006  56.39999771
C    25.48000145   1.74000001  55.83000183
H    25.62296486   2.21178174  56.80215454
H    21.02000046   2.68000007  57.97999954
H    19.63999939   0.68000007  53.56999969
H    21.97999954   1.00999999  52.77000046
H    24.47999954   1.35000002  53.37999725
H    23.26999855   2.52999997  57.28000259
H    15.00000000   2.56999993  57.12999725
H    25.59999847   0.65999997  56.00999832
H    26.14999962   2.24000001  55.12000275
S    14.32000065   0.45000002  52.91999817
C    11.59000015   0.73000002  53.54999924
C    12.90999985   1.00999999  53.82999802
C    13.30999947   1.48000002  55.13000107
C    12.30999947   1.63000000  56.06999969
C    10.93999958   1.38000000  55.83000183
C     9.88000011   1.38999999  56.77000046
C     8.60999966   0.99000001  56.42000198
C     8.26000023   0.55000001  55.12000275
C     9.23999977   0.56999999  54.15999985
C    10.57000065   0.92000002  54.51000214
C    14.75000000   1.49000001  55.31000137
C    15.44999981   0.99000001  54.18000031
C    16.84000015   0.88000000  54.16999817
C     6.94000006  -0.16000001  54.86000061
H     6.39748335   0.42534661  54.11760712
H    11.26000023   0.34999999  52.57999802
H    12.55000019   1.77999997  57.11999893
H    10.13000011   1.74000001  57.77000046
H     7.88000011   0.76999998  57.19999695
H     9.10000038   0.20999999  53.13999939
H    17.32999992   0.34999999  53.36000061
H     6.48999977  -0.23000000  55.86000061
H     7.28999996  -1.14999998  54.56999969
S    17.88999939   2.53999996  51.56000137
C    20.56999969   2.66000009  50.87999725
C    19.30999947   2.22000003  50.54000092
C    18.94000053   1.67999995  49.27000046
C    19.92000008   1.65000010  48.29999924
C    21.25999832   1.97000003  48.61000061
C    22.34999847   1.85000002  47.70000076
C    23.61999893   2.33999991  47.94000244
C    23.88000107   3.02999997  49.15000153
C    22.86000061   3.16000009  50.06000137
C    21.55999947   2.59999990  49.86999893
C    17.48999977   1.65999997  49.09000015
C    16.79999924   1.95999992  50.28999710
C    15.42000008   1.97000003  50.44000244
C    25.28000069   3.50000000  49.48999786
H    25.65839195   2.82889271  50.26105881
H    20.76000023   3.16000009  51.83000183
H    19.68000031   1.16999996  47.35000229
H    22.15999985   1.25000000  46.81999969
H    24.44000053   2.20000005  47.25000000
H    23.02000046   3.58999991  51.04000092
H    14.89999962   2.20000005  51.37000275
H    25.88000107   3.40999985  48.56999969
H    25.19000053   4.53999996  49.81999969
S    14.14999962   0.87000000  46.86999893
C    11.50000000   0.86000001  47.67000198
C    12.77999973   1.28999996  47.90999985
C    13.19000053   1.75000000  49.20999908
C    12.20999908   1.94999993  50.17000198
C    10.85000038   1.65999997  49.93000031
C     9.81999969   1.97000003  50.86999893
C     8.56000042   1.47000003  50.65999985
C     8.17000008   0.82999998  49.45000076
C     9.13999939   0.68000007  48.47999954
C    10.51000023   1.04999995  48.67000198
C    14.63999939   1.80000007  49.29000092
C    15.31000042   1.42000008  48.09999847
C    16.69000053   1.42000008  47.95999908
C     6.76999998   0.28999999  49.34999847
H     6.15794754   0.89493608  48.68101120
H    11.28999901   0.32999998  46.75000000
H    12.46999931   2.26999998  51.17000198
H    10.14999962   2.49000001  51.76000214
H     7.73999977   1.65999997  51.35000229
H     8.80999947   0.22000000  47.56000137
H    17.12000084   1.08000004  47.02999878
H     6.34000015   0.25000000  50.35999680
H     6.75000000  -0.73000002  48.95999908
