96

S    17.45000076   1.89999998  57.70999908
C    20.19000053   2.13000011  57.04999924
C    18.90999985   1.76999998  56.72000122
C    18.60999870   1.33000004  55.38000107
C    19.65999985   1.21000004  54.50000000
C    20.97999954   1.61000001  54.80999756
C    22.07999992   1.51999998  53.89999771
C    23.32999992   2.01999998  54.15999985
C    23.57000160   2.50000000  55.47000122
C    22.57999802   2.59999990  56.42000198
C    21.27000046   2.11999989  56.11999893
C    17.17000008   1.25000000  55.14999771
C    16.42000008   1.52999997  56.31999969
C    15.03000069   1.54999995  56.36000061
C    24.96000099   3.00999999  55.79999924
H    25.33609772   2.35714984  56.58767700
H    20.38999939   2.42000008  58.08000183
H    19.61000061   0.97999996  53.43999863
H    22.04000092   1.07000005  52.90999985
H    24.11000061   2.03999996  53.40000153
H    22.65000153   3.08999991  57.38999939
H    14.47000027   1.88999999  57.22999954
H    25.58000183   2.93000007  54.89999771
H    24.99000168   4.05000019  56.13999939
S    13.88000011   0.45000002  52.77999878
C    11.17000008   0.32999998  53.41999817
C    12.46000099   0.56000000  53.82999802
C    12.84000015   1.01999998  55.13999939
C    11.82000065   1.26999998  56.04000092
C    10.47999954   0.93000001  55.72000122
C     9.42000008   1.10000002  56.65000153
C     8.14999962   0.64999998  56.38999939
C     7.82999992   0.19000000  55.08999634
C     8.80999947   0.07000000  54.12000275
C    10.14999962   0.44000000  54.40999985
C    14.27999973   1.14999998  55.25000000
C    15.01000023   0.88999999  54.06000137
C    16.39999962   0.93999994  54.02000046
C     6.40999985  -0.19999999  54.75999832
H     5.95575714   0.54524255  54.10702133
H    10.88000107  -0.09999999  52.45999908
H    12.02999973   1.51999998  57.08000183
H     9.56999969   1.56000006  57.62000275
H     7.36999989   0.79000002  57.14000320
H     8.50000000  -0.22000000  53.11999893
H    16.87999916   0.73000002  53.06999969
H     5.78999996  -0.41999999  55.63000107
H     6.60000038  -1.11000001  54.16999817
S    13.88000011  -1.43999994  49.77000427
C    11.26000023  -2.07999992  50.52000046
C    12.61000061  -2.27999997  50.68000031
C    13.20000076  -2.84999990  51.86000061
C    12.32999992  -3.25999999  52.84999847
C    10.93999958  -3.03999996  52.75000000
C     9.96999931  -3.42999983  53.73000336
C     8.61999989  -3.45999980  53.46000290
C     8.07999992  -2.92000008  52.27000427
C     8.97000027  -2.40999985  51.35000229
C    10.36999893  -2.49000001  51.55000305
C    14.65000057  -2.70000005  51.98999786
C    15.14000034  -1.89999998  50.93999863
C    16.39000130  -1.28999996  51.00999832
C     6.63999987  -3.25999999  51.95999908
H     6.35405970  -2.78104973  51.02354431
H    10.86999989  -1.65000010  49.59999847
H    12.74000072  -3.67000008  53.76999664
H    10.29999924  -4.00000000  54.59000015
H     7.94000053  -4.09999990  54.01000214
H     8.71999931  -2.10999990  50.33000183
H    16.72000122  -0.71000004  50.15999603
H     6.51000023  -4.34999990  51.86999893
H     6.06999969  -2.92000008  52.84000015
S    17.85000038  -2.89000010  54.36000061
C    20.50000000  -2.23000002  53.66000366
C    19.13999939  -2.09999990  53.44999695
C    18.64999962  -1.42000008  52.29000092
C    19.54000092  -0.90000004  51.37000275
C    20.94000053  -0.97999996  51.59999847
C    21.90000153  -0.43000001  50.70999908
C    23.25000000  -0.48999998  51.00000000
C    23.74000168  -1.01999998  52.22000122
C    22.84000015  -1.67999995  53.02000046
C    21.44000053  -1.65999997  52.76000214
C    17.22999954  -1.62000000  52.08000183
C    16.67000008  -2.38999987  53.13999939
C    15.39999962  -2.94999981  53.15000153
C    25.22000122  -1.07000005  52.50999832
H    25.53245163  -1.67359912  53.36213684
H    20.86999893  -2.93000007  54.40000153
H    19.19999886  -0.46000001  50.44000244
H    21.47000122   0.08000001  49.85000229
H    24.01000023  -0.23000000  50.27000046
H    23.11000061  -2.40999985  53.77999878
H    14.98000050  -3.45000005  54.01000214
H    25.55000114  -0.05000000  52.72999573
H    25.66999817  -1.38000000  51.55000305
