96

S    17.31999969   1.79000008  57.88000107
C    20.00999832   2.06999993  57.22000122
C    18.72999954   1.79000008  56.79999924
C    18.37000084   1.43999994  55.45999908
C    19.40000153   1.00000000  54.64000320
C    20.72000122   1.35000002  54.98000336
C    21.80999947   1.19999993  54.08000183
C    23.09000015   1.61000001  54.36000061
C    23.35000038   2.38000011  55.52999878
C    22.36000061   2.42000008  56.47999573
C    21.02999878   1.97000003  56.24000168
C    16.94000053   1.25999999  55.26000214
C    16.27000046   1.58999991  56.46999741
C    14.88000011   1.63000000  56.56000137
C    24.73999977   2.84999990  55.90999985
H    25.17366791   2.31680083  56.75600815
H    20.19000053   2.50000000  58.20000076
H    19.13999939   0.50000000  53.70999908
H    21.48999977   0.81000000  53.11999893
H    23.88999939   1.53999996  53.61999893
H    22.67999840   2.66000009  57.49000168
H    14.37999916   1.79000008  57.50999832
H    25.38999939   2.63999987  55.05000305
H    24.65999985   3.93000007  56.06999969
S    13.69999981   0.38000000  52.97000122
C    11.07999992   0.09000000  53.83999634
C    12.35999966   0.50999999  54.13000107
C    12.69000053   1.11000001  55.38999939
C    11.69000053   1.33000004  56.31999969
C    10.36000061   0.90999997  56.07999802
C     9.23999977   1.21000004  56.90000153
C     7.92999983   0.93999994  56.55000305
C     7.64999962   0.29999998  55.31999969
C     8.71000004   0.02000000  54.48999786
C    10.06000042   0.37000000  54.78000259
C    14.13000011   1.30999994  55.41999817
C    14.80999947   0.94999999  54.22999954
C    16.20000076   0.88999999  54.13000107
C     6.24000025  -0.09000000  54.95999908
H     5.79881811   0.59312052  54.23418427
H    10.90000057  -0.59000003  53.01000214
H    11.94000053   1.72999990  57.29999924
H     9.44000053   1.66999996  57.85999680
H     7.11000013   1.10000002  57.25000000
H     8.52999973  -0.14999999  53.43000031
H    16.55999947   0.54000002  53.16999817
H     5.64000034  -0.22000000  55.86999893
H     6.39999962  -1.05999994  54.47999954
S    14.46000004  -1.53999996  49.89999771
C    11.77000046  -2.09999990  50.47000122
C    13.09999943  -2.22000003  50.80999756
C    13.53000069  -2.77999997  52.04999924
C    12.55000019  -3.30000019  52.88999939
C    11.17000008  -3.21000004  52.58999634
C    10.11000061  -3.65000010  53.41999817
C     8.78000069  -3.50000000  53.09999847
C     8.38999939  -2.73000002  51.97000122
C     9.39000034  -2.42000008  51.06999969
C    10.77000046  -2.56999993  51.36000061
C    14.94999981  -2.61000013  52.30999756
C    15.55999947  -1.89999998  51.24000168
C    16.87000084  -1.44999993  51.22000122
C     6.96000004  -2.28999996  51.77000046
H     6.53975391  -2.83133435  50.92238617
H    11.49000072  -1.50999999  49.59999847
H    12.86999893  -3.75999975  53.82999802
H    10.36999893  -4.05000019  54.38999939
H     8.00000000  -3.75000000  53.81000137
H     9.19999981  -1.93000007  50.12000275
H    17.28000069  -0.94999999  50.34000015
H     6.23000050  -2.37000012  52.58999634
H     7.00000000  -1.22000003  51.52000046
S    18.30999947  -3.25999999  54.50000000
C    20.98999977  -2.66000009  53.79000092
C    19.63999939  -2.61000013  53.53000259
C    19.12999916  -1.94999993  52.37999725
C    20.02000046  -1.58000004  51.38000107
C    21.40999985  -1.52999997  51.63000107
C    22.34000015  -0.92000002  50.73999786
C    23.64999962  -0.64999998  51.09000397
C    24.13000107  -1.23000002  52.29000092
C    23.26999855  -1.85000002  53.18000031
C    21.90000153  -2.05999994  52.87000275
C    17.68000031  -1.90999997  52.27000427
C    17.12000084  -2.64999986  53.34000015
C    15.76000023  -2.96000004  53.39000320
C    25.48999977  -0.90000004  52.85999680
H    25.76669884  -1.53143907  53.70428467
H    21.42000008  -3.08999991  54.68999863
H    19.65999985  -1.22000003  50.43000031
H    21.98999786  -0.56999999  49.77000427
H    24.30000114  -0.05000000  50.47000122
H    23.57999992  -2.10999990  54.18000031
H    15.26999950  -3.31999993  54.29000092
H    25.38999939   0.13000000  53.20999908
H    26.25999832  -1.00999999  52.09000015
