96

S    17.11000061   1.80999994  57.63999939
C    19.84000015   1.89999998  56.93000031
C    18.53000069   1.66999996  56.58000183
C    18.15999985   1.28999996  55.25000000
C    19.15999985   1.00999999  54.34000015
C    20.52999878   1.19000006  54.65999985
C    21.52000046   1.08000004  53.63999939
C    22.85000038   1.18000007  53.97999573
C    23.22000122   1.50999999  55.31000137
C    22.26000023   1.77999997  56.25000000
C    20.86999893   1.65999997  55.97999954
C    16.72999954   1.02999997  55.13000107
C    16.02000046   1.38000000  56.31000137
C    14.63999939   1.36000013  56.39999771
C    24.70999908   1.72000003  55.52999878
H    25.24374199   1.11509085  56.26300812
H    20.06999969   2.25000000  57.94000244
H    18.96999931   0.79000002  53.29999924
H    21.15999985   0.69000000  52.69000244
H    23.59999847   1.14999998  53.20000076
H    22.63999939   2.09000015  57.22000122
H    14.13000011   1.76999998  57.27000427
H    25.17999840   1.75999999  54.54000092
H    24.76000023   2.79000020  55.79000092
S    13.45999908   0.71000004  52.69000244
C    10.75000000   0.39000002  53.40999985
C    12.03999996   0.73000002  53.75000000
C    12.46000099   1.07000005  55.06999969
C    11.44000053   1.28999996  55.97999954
C    10.08999920   1.05999994  55.61999893
C     9.06000042   1.23000002  56.59000015
C     7.73999977   0.99000001  56.30000305
C     7.36000013   0.44000000  55.05000305
C     8.31999969   0.23000000  54.09000015
C     9.68999958   0.54000002  54.34000015
C    13.89999962   1.10000002  55.24000168
C    14.60999966   0.83999997  54.03999710
C    15.98999977   0.75999999  53.97999573
C     5.92000008   0.03000000  54.86999893
H     5.50707960   0.41444284  53.93736649
H    10.39999962   0.14000000  52.41000366
H    11.59999943   1.58000004  57.02000046
H     9.31999969   1.64000010  57.56999969
H     6.93000031   1.19000006  57.00000000
H     8.10000038  -0.02000000  53.04999924
H    16.46000099   0.90000004  53.01000214
H     5.40999985   0.39999998  55.77000046
H     5.97000027  -1.07000005  54.94999695
S    14.00000000  -1.38999999  49.77000427
C    11.36999989  -1.93000007  50.38999939
C    12.69000053  -2.02999997  50.77999878
C    13.12999916  -2.61999989  52.00000000
C    12.23000050  -3.26999998  52.84000015
C    10.86999989  -3.01999998  52.55000305
C     9.94000053  -3.67000008  53.40999985
C     8.60000038  -3.42000008  53.20000076
C     8.14999962  -2.66000009  52.09000015
C     9.02000046  -2.23000002  51.11000061
C    10.42000008  -2.38000011  51.33999634
C    14.55999947  -2.43000007  52.12999725
C    15.19000053  -1.81999993  51.00999832
C    16.53000069  -1.49000001  51.10000229
C     6.69000053  -2.33999991  51.86000061
H     6.24739218  -3.23235464  51.41739273
H    11.00999928  -1.56000006  49.43999863
H    12.55000019  -3.84999990  53.69999695
H    10.31999969  -4.42999983  54.09000015
H     7.88000011  -3.72000003  53.95000076
H     8.69000053  -1.70000005  50.22999573
H    17.06999969  -1.07000005  50.26000214
H     6.19999981  -2.09000015  52.80000305
H     6.51999998  -1.38000000  51.35000229
S    17.81999969  -3.33999991  54.38000107
C    20.53999901  -2.92000008  53.66000366
C    19.19999886  -2.72000027  53.44999695
C    18.77000046  -1.87999988  52.36999893
C    19.70000076  -1.42000008  51.45999908
C    21.09000015  -1.58000004  51.70999908
C    22.13000107  -1.07000005  50.90000153
C    23.45999908  -1.28000009  51.18999863
C    23.90999985  -2.04999995  52.29999924
C    22.92000008  -2.63999987  53.04999924
C    21.54000092  -2.32999992  52.85999680
C    17.32999992  -1.90999997  52.18000031
C    16.69000053  -2.68000007  53.18000031
C    15.31000042  -2.89000010  53.22000122
C    25.34000015  -2.51999998  52.45999908
H    25.80192757  -2.02253914  53.31279373
H    20.82999992  -3.52999973  54.52000046
H    19.44000053  -1.02999997  50.47999954
H    21.86000061  -0.44000000  50.06000137
H    24.20000076  -0.85000002  50.52000046
H    23.21000099  -3.30000019  53.86000061
H    14.80999947  -3.47000003  53.99000168
H    25.81999969  -2.16999984  51.52999878
H    25.39999962  -3.61999989  52.44999695
