96

S    17.29999924   2.09999990  57.75000000
C    19.96999931   2.36000013  57.12999725
C    18.75000000   1.84000003  56.77000046
C    18.40999985   1.19000006  55.54000092
C    19.44000053   1.11000001  54.61999893
C    20.73999786   1.58999991  54.89999771
C    21.80999947   1.43000007  53.97999573
C    23.08000183   1.92000008  54.20999908
C    23.32999992   2.59000015  55.44000244
C    22.32999992   2.69000006  56.38000107
C    20.98999977   2.25999999  56.14999771
C    16.97000122   1.04999995  55.38000107
C    16.21000099   1.46000004  56.51000214
C    14.82999992   1.56000006  56.62000275
C    24.72999954   2.96000004  55.87999725
H    25.14359856   2.24689698  56.59310150
H    20.29000092   2.59000015  58.13999939
H    19.13999939   0.79999995  53.61999893
H    21.65999985   1.03999996  52.97999954
H    23.78999901   1.63000000  53.44999695
H    22.53000069   3.07999992  57.36999893
H    14.40999985   1.75000000  57.60000229
H    25.46999931   2.89000010  55.06999969
H    24.84999847   4.00000000  56.19999695
S    13.69999981   0.16000001  53.13000107
C    11.00999928  -0.04000000  53.83999634
C    12.27000046   0.41000003  54.15000153
C    12.61999989   0.99000001  55.40999985
C    11.59000015   1.26999998  56.29000092
C    10.25000000   0.90999997  56.00999832
C     9.19999981   1.03999996  56.95999908
C     7.94000053   0.51999998  56.79999924
C     7.64999962   0.01000000  55.50000000
C     8.60000038  -0.03000000  54.51000214
C     9.96999931   0.27000001  54.75000000
C    14.06000042   1.14999998  55.52000046
C    14.80000019   0.79000002  54.36999893
C    16.18999863   0.79999995  54.25000000
C     6.21000004  -0.19999999  55.06999969
H     5.83249950   0.24872750  54.15117645
H    10.72999954  -0.54000002  52.91999817
H    11.85999966   1.58999991  57.29000092
H     9.55000019   1.50999999  57.88000107
H     7.20000029   0.50999999  57.60000229
H     8.39999962  -0.34999999  53.48999786
H    16.57999992   0.51999998  53.27000046
H     5.51999998   0.12000000  55.84999847
H     6.00000000  -1.26999998  54.97000122
S    18.15999985   2.61999989  51.88999939
C    20.81999969   2.69000006  51.13999939
C    19.54000092   2.25999999  50.83000183
C    19.17000008   1.67999995  49.58000183
C    20.15000153   1.56000006  48.61000061
C    21.45000076   2.05999994  48.80000305
C    22.46000099   1.93000007  47.80000305
C    23.75999832   2.20000005  48.15999985
C    24.11000061   2.69000006  49.45000076
C    23.12000084   2.99000001  50.34999847
C    21.76000214   2.63999987  50.07999802
C    17.71999931   1.56000006  49.48999786
C    17.04000092   2.01999998  50.65000153
C    15.65000057   2.07999992  50.75000000
C    25.55000114   2.94000006  49.82999802
H    25.93477249   2.36284256  50.67079544
H    20.97999954   3.19999981  52.08000183
H    19.81999969   1.28000009  47.61000061
H    22.20000076   1.49000001  46.84999847
H    24.48999786   2.01999998  47.37999725
H    23.25000000   3.50000000  51.30000305
H    15.18000031   2.20000005  51.72000122
H    26.14999962   2.70000005  48.94000244
H    25.72000122   4.01999998  49.89999771
S    14.46000004   1.19000006  47.02000046
C    11.76000023   0.99000001  47.83000183
C    13.05999947   1.35000002  48.09999847
C    13.45000076   1.81999993  49.40000153
C    12.44999981   2.02999997  50.33000183
C    11.10000038   1.66999996  50.12000275
C    10.11999989   1.65000010  51.14999771
C     8.82000065   1.29999995  50.84999847
C     8.45000076   0.96000004  49.52000046
C     9.38000011   0.97000003  48.50999832
C    10.75000000   1.21000004  48.80000305
C    14.88999939   1.87000012  49.59000015
C    15.53999996   1.50999999  48.39000320
C    16.90999985   1.28999996  48.37999725
C     7.03999996   0.52999997  49.19000244
H     6.66258812   0.96437967  48.26427460
H    11.49000072   0.61000001  46.84999847
H    12.72999954   2.28999996  51.35000229
H    10.48999977   1.89999998  52.14000320
H     8.14000034   1.14999998  51.68000031
H     9.17000008   0.68000007  47.48000336
H    17.43999863   0.96000004  47.49000168
H     6.38000011   0.76999998  50.04000092
H     7.09000015  -0.56999999  49.18000031
