96

S    17.35999870   2.24000001  57.68000031
C    20.03000069   2.38000011  56.91999817
C    18.75000000   1.95999992  56.62000275
C    18.43000031   1.43999994  55.33000183
C    19.47000122   1.26999998  54.43999863
C    20.81000137   1.59999990  54.73999786
C    21.87999916   1.23000002  53.87000275
C    23.15999985   1.65000010  54.13999939
C    23.43000031   2.32999992  55.35999680
C    22.44999886   2.56999993  56.29000092
C    21.09999847   2.25999999  55.98999786
C    16.97999954   1.38000000  55.20999908
C    16.27000046   1.80000007  56.36000061
C    14.89999962   2.03999996  56.43000031
C    24.87999916   2.70000005  55.59000015
H    25.32706070   2.07553506  56.36348343
H    20.20000076   2.79999995  57.90999985
H    19.22000122   0.71999997  53.54000092
H    21.73000145   0.90000004  52.84000015
H    23.88000107   1.44999993  53.34999847
H    22.62000084   2.96999979  57.29000092
H    14.53999996   2.20000005  57.43999863
H    25.45000076   2.47000003  54.68000031
H    24.93000031   3.75999975  55.86999893
S    13.69999981   0.81000000  52.84999847
C    10.98999977   0.74000001  53.64999771
C    12.30999947   1.04999995  53.93000031
C    12.69000053   1.46000004  55.25000000
C    11.77000046   1.63000000  56.26999664
C    10.40999985   1.31999993  56.00000000
C     9.36999989   1.38999999  56.95999908
C     8.03999996   1.24000001  56.63999939
C     7.68000031   0.90000004  55.30000305
C     8.65999985   0.76999998  54.34000015
C    10.03000069   1.00000000  54.65000153
C    14.13000011   1.57000005  55.34999847
C    14.80999947   1.08999991  54.20999908
C    16.20000076   1.11000001  54.08000183
C     6.21999979   0.67000002  54.97000122
H     5.90629530   1.09064937  54.01462555
H    10.70000076   0.20999999  52.75000000
H    12.13000107   1.87999988  57.25999832
H     9.63000011   1.75000000  57.95000076
H     7.39000034   1.16999996  57.50000000
H     8.32999992   0.50000000  53.34000015
H    16.68000031   0.79000002  53.15999985
H     5.56999969   1.07000005  55.75000000
H     5.97000027  -0.39999998  54.93999863
S    14.07999992  -1.54999995  49.72000122
C    11.32999992  -1.71000004  50.38999939
C    12.64999962  -1.98000002  50.68000031
C    13.12000084  -2.56999993  51.90000153
C    12.13999939  -3.01999998  52.77000046
C    10.77999973  -2.66999984  52.62000275
C     9.77999973  -3.07000017  53.55999756
C     8.46000004  -2.73999977  53.31999969
C     8.05000019  -2.10999990  52.11999893
C     8.98999977  -1.84000003  51.16000366
C    10.38000011  -2.07999992  51.37000275
C    14.55999947  -2.54999995  52.09999847
C    15.19000053  -1.77999997  51.09000397
C    16.47999954  -1.28000009  51.18999863
C     6.54999971  -2.07999992  51.91999817
H     6.24445486  -2.85452104  51.21653748
H    11.13999939  -1.19000006  49.45000076
H    12.38999939  -3.81999993  53.46000290
H     9.94000053  -3.65000010  54.45999908
H     7.76000023  -3.17000008  54.02999878
H     8.73999977  -1.63000000  50.12000275
H    16.79000092  -0.68000007  50.33000183
H     5.97000027  -2.09999990  52.84999847
H     6.48999977  -1.10000002  51.44000244
S    17.79999924  -3.16000009  54.47000122
C    20.46999931  -2.64999986  53.81000137
C    19.12999916  -2.43000007  53.54999924
C    18.71999931  -1.70000005  52.38999939
C    19.70000076  -1.28999996  51.51000214
C    21.07000160  -1.49000001  51.77000046
C    22.06000137  -1.00000000  50.86999893
C    23.38999939  -1.28000009  51.07999802
C    23.81999969  -2.07999992  52.16999817
C    22.86000061  -2.61000013  53.01000214
C    21.50000000  -2.22000003  52.94000244
C    17.27000046  -1.80000007  52.22000122
C    16.67000008  -2.56999993  53.23999786
C    15.31999969  -2.92000008  53.22000122
C    25.28000069  -2.36000013  52.44999695
H    25.74974442  -1.91160798  53.32543182
H    20.76999855  -3.33999991  54.59000015
H    19.31999969  -0.78000003  50.63000107
H    21.73999977  -0.35999998  50.05000305
H    24.09000015  -0.93000001  50.33000183
H    23.16999817  -3.32999992  53.76999664
H    14.80000019  -3.47000003  54.00000000
H    25.79999924  -2.20000005  51.49000168
H    25.22999954  -3.44000006  52.56999969
