96

S    17.32999992   2.00000000  57.77000046
C    19.96999931   2.28999996  56.91999817
C    18.70000076   1.81999993  56.65999985
C    18.35000038   1.12000000  55.45999908
C    19.34999847   0.97999996  54.51000214
C    20.65999985   1.48000002  54.69999695
C    21.75000000   1.10000002  53.87000275
C    23.01000214   1.61000001  54.09999847
C    23.26999855   2.37000012  55.27000046
C    22.27000046   2.70000005  56.14999771
C    20.95999908   2.19000006  55.90999985
C    16.90000153   1.04999995  55.34000015
C    16.21000099   1.53999996  56.46999741
C    14.84000015   1.80000007  56.51000214
C    24.67000008   2.82000017  55.63999939
H    25.18154335   2.08820748  56.26522064
H    20.09000015   2.73000002  57.90000153
H    19.15999985   0.31000000  53.68000031
H    21.42999840   0.39000002  53.11999893
H    23.78000069   1.44999993  53.36000061
H    22.39000130   3.17000008  57.12999725
H    14.40999985   2.01999998  57.48000336
H    25.15000153   3.01999998  54.66999817
H    24.61999893   3.75000000  56.20999908
S    13.76000023   0.27000001  53.04000092
C    11.06999969   0.32000002  53.73000336
C    12.35000038   0.71999997  54.02000046
C    12.63000011   1.36000013  55.27000046
C    11.67000008   1.41000009  56.25999832
C    10.34999943   0.93000001  56.04999924
C     9.25000000   1.07000005  56.93999863
C     7.96000004   0.73000002  56.62000275
C     7.75000000   0.04000000  55.38999939
C     8.76999950  -0.08000001  54.47000122
C    10.06999969   0.43000001  54.72999954
C    14.07999992   1.49000001  55.38000107
C    14.81999969   0.99000001  54.27000046
C    16.18000031   0.71999997  54.18000031
C     6.38000011  -0.50000000  55.06000137
H     5.88019609   0.05692464  54.26745605
H    10.88999939  -0.24000001  52.81999969
H    11.98999977   1.72000003  57.25000000
H     9.48999977   1.50999999  57.90000153
H     7.03000021   1.08000004  57.05999756
H     8.61999989  -0.39999998  53.43999863
H    16.61999893   0.34999999  53.26000214
H     5.68000031  -0.61000001  55.90000153
H     6.54999971  -1.52999997  54.71000290
S    18.20000076   2.20000005  51.90999985
C    20.88999939   2.49000001  51.11999893
C    19.63000107   2.01999998  50.86999893
C    19.27000046   1.51999998  49.56999969
C    20.26000023   1.50000000  48.61000061
C    21.63000107   1.72000003  48.89999771
C    22.65999985   1.42000008  47.95999908
C    23.95000076   1.81999993  48.23999786
C    24.23000145   2.48000002  49.47000122
C    23.29000092   2.63000011  50.45000076
C    21.94000053   2.25000000  50.20000076
C    17.82999992   1.35000002  49.41999817
C    17.12000084   1.80000007  50.56000137
C    15.73999977   1.89999998  50.63999939
C    25.63999939   2.96000004  49.75000000
H    26.16800308   2.28929520  50.42784119
H    21.19999886   2.93000007  52.06999969
H    19.93000031   1.13000000  47.63999939
H    22.32000160   0.92000002  47.06999969
H    24.65999985   1.74000001  47.42000198
H    23.54000092   3.15000010  51.37000275
H    15.32999992   2.09000015  51.62000275
H    26.24000168   3.25999999  48.88000107
H    25.40999985   3.88000011  50.28999710
S    14.55000019   0.59000003  47.11999893
C    11.84000015   0.50999999  47.70999908
C    13.10999966   0.85000002  48.11999893
C    13.52000046   1.35000002  49.40000153
C    12.46000099   1.58000004  50.26000214
C    11.11999989   1.31999993  49.87999725
C    10.11000061   1.54999995  50.84999847
C     8.80999947   1.18000007  50.63000107
C     8.55000019   0.46000001  49.43000031
C     9.43000031   0.34000003  48.37999725
C    10.76000023   0.79000002  48.59000397
C    14.96000099   1.49000001  49.54999924
C    15.67999935   1.05999994  48.40999985
C    17.05999947   0.93000001  48.33000183
C     7.17000008  -0.14000000  49.22000122
H     6.60721445   0.43703353  48.48624039
H    11.69000053  -0.03000000  46.77999878
H    12.56000042   1.93000007  51.27999878
H    10.46000004   1.88999999  51.83000183
H     7.97999954   1.16999996  51.32999802
H     9.26999950  -0.17000002  47.43999863
H    17.46999931   0.67000002  47.36000061
H     6.69000053  -0.13000000  50.20000076
H     7.36000013  -1.16999996  48.90999603
