96

S    17.46999931   2.17999983  57.75000000
C    20.10999870   2.25999999  57.02999878
C    18.86999893   1.70000005  56.77000046
C    18.47999954   1.10000002  55.52999878
C    19.45999908   0.82999998  54.59000015
C    20.79000092   1.22000003  54.89999771
C    21.86000061   1.00999999  53.97999573
C    23.12000084   1.52999997  54.16999817
C    23.39999962   2.32999992  55.31000137
C    22.37999916   2.63999987  56.17000198
C    21.09000015   2.04999995  56.03000259
C    17.04000092   1.19000006  55.37000275
C    16.31999969   1.72999990  56.46999741
C    14.93999958   1.69000006  56.52000046
C    24.86999893   2.59999990  55.58000183
H    25.28130913   1.84829593  56.25369644
H    20.28000069   2.79000020  57.95999908
H    19.11000061   0.34999999  53.68999863
H    21.63999939   0.34000003  53.15000153
H    23.90999985   1.26999998  53.47999954
H    22.56000137   3.28999996  57.02000046
H    14.37000084   1.90999997  57.41000366
H    25.48999977   2.68000007  54.68000031
H    24.96000099   3.60000014  56.03000259
S    13.82999992   0.05000000  53.04999924
C    11.23000050  -0.29999998  53.85000229
C    12.42000008   0.34000003  54.09999847
C    12.76000023   1.08999991  55.27000046
C    11.73999977   1.28999996  56.17000198
C    10.42000008   0.82000005  55.93000031
C     9.27999973   1.19999993  56.69000244
C     8.05999947   0.62000000  56.46999741
C     7.88999987  -0.17000002  55.30000305
C     8.90999985  -0.50000000  54.45000076
C    10.21000004  -0.02000000  54.79000092
C    14.21000004   1.22000003  55.41999817
C    14.92000008   0.69000000  54.31000137
C    16.31000137   0.64999998  54.29999924
C     6.51000023  -0.69999999  54.95999908
H     5.98549271  -0.11878866  54.20158768
H    11.00000000  -0.82999998  52.91999817
H    11.97999954   1.72999990  57.12999725
H     9.35999966   1.88999999  57.52999878
H     7.25000000   0.78000003  57.18000031
H     8.76999950  -1.01999998  53.50000000
H    16.92000008   0.19999999  53.53000259
H     5.86999989  -0.69000000  55.84999847
H     6.63000011  -1.72999990  54.61999893
S    14.73000050  -1.70000005  49.80999756
C    12.02000046  -2.16999984  50.47000122
C    13.35999966  -2.38000011  50.70000076
C    13.76999950  -2.98000002  51.93000031
C    12.79999924  -3.35000014  52.84999847
C    11.42000008  -3.30000019  52.56000137
C    10.44999981  -4.00999975  53.33000183
C     9.11000061  -4.00000000  53.02000046
C     8.69999981  -3.19000006  51.93000031
C     9.61000061  -2.56999993  51.11000061
C    11.00999928  -2.63999987  51.35000229
C    15.17000008  -2.71000004  52.22999954
C    15.82999992  -2.05999994  51.16000366
C    17.14999962  -1.63000000  51.22000122
C     7.20000029  -3.15000010  51.72999954
H     6.85039186  -3.55668736  50.78106308
H    11.64000034  -1.61000001  49.61999893
H    13.07999992  -3.78999996  53.81000137
H    10.85999966  -4.71000004  54.05000305
H     8.39999962  -4.48999977  53.68000031
H     9.34000015  -2.09999990  50.15999603
H    17.61999893  -1.31999993  50.28999710
H     6.70000029  -3.70000005  52.54000092
H     6.78999996  -2.14000010  51.73999786
S    18.37000084  -2.91000009  54.80999756
C    21.07000160  -2.61999989  54.03999710
C    19.72999954  -2.38000011  53.81000137
C    19.29999924  -1.90999997  52.52999878
C    20.25000000  -1.44999993  51.63999939
C    21.63999939  -1.64000010  51.86999893
C    22.67000008  -1.28000009  50.96000290
C    24.01000023  -1.14999998  51.26999664
C    24.40999985  -1.65000010  52.52999878
C    23.46999931  -2.22000003  53.36000061
C    22.06999969  -2.19000006  53.13000107
C    17.85000038  -1.99000001  52.36999893
C    17.25000000  -2.68000007  53.46000290
C    15.90999985  -3.02999997  53.36999893
C    25.72000122  -1.24000001  53.16999817
H    26.11956978  -1.95351601  53.89065170
H    21.28000069  -3.22000003  54.92000198
H    19.80999947  -1.13999999  50.70000076
H    22.30999947  -0.73000002  50.10000229
H    24.71999931  -0.57999998  50.68000031
H    23.81000137  -2.52999997  54.34999847
H    15.39000034  -3.52999973  54.19000244
H    25.58000183  -0.25999999  53.64999771
H    26.42999840  -1.15999997  52.32999802
