96

S    17.53999901   1.88999999  57.50999832
C    20.20999908   1.93000007  56.86000061
C    18.95000076   1.50000000  56.50000000
C    18.56999969   0.99000001  55.21999741
C    19.55000114   1.00999999  54.23999786
C    20.86999893   1.35000002  54.59999847
C    21.88999939   1.34000003  53.60000229
C    23.21000099   1.63000000  53.86000061
C    23.57000160   1.90999997  55.20000076
C    22.63000107   2.04999995  56.18999863
C    21.25000000   1.81999993  55.90000153
C    17.12000084   0.88000000  55.10000229
C    16.42000008   1.31999993  56.25000000
C    15.03999901   1.43999994  56.33999634
C    25.02000046   2.21000004  55.52999878
H    25.43887901   1.66332698  56.37485886
H    20.34000015   2.33999991  57.84999847
H    19.30999947   0.61000001  53.26000214
H    21.64999962   0.88999999  52.63999939
H    23.90000153   1.76999998  53.02999878
H    22.81999969   2.28999996  57.22999954
H    14.55000019   1.80999994  57.23999786
H    25.65000153   2.05999994  54.65000153
H    25.12000084   3.28999996  55.70000076
S    13.86999989  -0.02000000  52.84999847
C    11.13999939   0.27000001  53.43000031
C    12.44999981   0.52999997  53.75999832
C    12.84000015   1.10000002  55.00999832
C    11.84999943   1.43999994  55.91999817
C    10.51000023   1.11000001  55.63999939
C     9.48000050   1.33000004  56.60999680
C     8.18000031   1.00000000  56.32999802
C     7.88000011   0.25999999  55.14999771
C     8.82999992   0.04000000  54.18000031
C    10.11999989   0.61000001  54.36000061
C    14.27999973   1.13999999  55.20000076
C    14.96999931   0.54000002  54.12000275
C    16.35000038   0.34999999  54.06000137
C     6.48999977  -0.25000000  54.86000061
H     5.95321512   0.37266999  54.14428711
H    10.90999985  -0.39000002  52.60000229
H    12.05000019   1.84000003  56.90999985
H     9.89000034   1.77999997  57.51999664
H     7.36999989   1.34000003  56.97000122
H     8.60999966  -0.65999997  53.36999893
H    16.79999924  -0.09999999  53.18000031
H     5.92000008  -0.31000000  55.79999924
H     6.63999987  -1.28000009  54.51000214
S    17.51000023   2.24000001  51.56999969
C    20.26000023   2.25999999  50.86999893
C    18.96000099   1.87000012  50.61999893
C    18.63000107   1.22000003  49.38999939
C    19.68000031   0.93999994  48.53000259
C    21.04000092   1.22000003  48.81000137
C    22.07999992   0.97000003  47.85999680
C    23.38999939   1.25999999  48.15000153
C    23.67000198   1.98000002  49.34000015
C    22.69000053   2.36000013  50.22999573
C    21.34000015   1.97000003  50.00000000
C    17.19000053   1.10000002  49.23999786
C    16.42000008   1.58000004  50.33000183
C    15.03999901   1.69000006  50.40999985
C    25.07999802   2.42000008  49.65000153
H    25.59232712   1.64439142  50.21925354
H    20.46999931   2.71000004  51.84000015
H    19.54000092   0.51999998  47.54000092
H    21.81999969   0.62000000  46.86999893
H    24.20000076   1.00999999  47.47000122
H    22.85000038   3.00999999  51.07999802
H    14.50000000   2.00999999  51.30000305
H    25.65000153   2.66999984  48.75000000
H    25.12000084   3.30000019  50.31000137
S    14.01999950   0.43000001  46.81000137
C    11.26999950   0.38000000  47.47000122
C    12.56999969   0.71999997  47.77999878
C    12.93000031   1.24000001  49.06000137
C    11.97999954   1.43000007  50.04000092
C    10.62999916   1.13000000  49.71000290
C     9.65999985   1.24000001  50.75000000
C     8.34999943   0.97000003  50.44000244
C     7.96999979   0.56999999  49.13000107
C     8.89999962   0.27000001  48.15999985
C    10.25000000   0.61000001  48.41999817
C    14.37999916   1.23000002  49.27000046
C    15.11999989   0.75000000  48.15999985
C    16.50000000   0.57999998  48.13000107
C     6.60000038   0.02000000  48.81000137
H     6.27167034   0.42684388  47.85356140
H    11.03999996  -0.19000000  46.56999969
H    12.18999958   1.66999996  51.07999802
H     9.92999935   1.69000006  51.70000076
H     7.59000015   1.19999993  51.18000031
H     8.63000011  -0.20999999  47.22000122
H    17.02999878   0.16000001  47.28000259
H     5.92999983   0.28000000  49.64000320
H     6.54999971  -1.07000005  48.62999725
