96

S    17.40999985   1.88999999  57.69000244
C    20.09000015   1.95999992  57.09000015
C    18.82999992   1.61000001  56.65999985
C    18.47999954   1.16999996  55.34000015
C    19.52000046   0.88000000  54.47999954
C    20.81000137   1.38000000  54.79000092
C    21.91999817   1.22000003  53.92000198
C    23.22999954   1.41000009  54.29999924
C    23.46999931   1.94000006  55.59999847
C    22.43999863   2.22000003  56.47999573
C    21.11000061   1.87000012  56.11000061
C    17.05000114   0.97000003  55.15999603
C    16.38000107   1.48000002  56.31000137
C    15.00000000   1.65999997  56.29000092
C    24.86999893   2.44000006  55.87999725
H    25.40298271   1.80042076  56.58353424
H    20.25000000   2.40999985  58.06999969
H    19.38999939   0.41000003  53.50999832
H    21.73999977   0.59000003  53.06000137
H    24.04000092   1.05999994  53.67000198
H    22.59000015   2.73999977  57.42000198
H    14.46000004   1.86000001  57.21000290
H    25.45000076   2.36000013  54.94999695
H    24.89000130   3.50000000  56.13999939
S    13.80000019   0.38000000  52.77999878
C    11.07999992   0.38000000  53.46000290
C    12.38999939   0.61000001  53.82999802
C    12.79999924   1.08999991  55.11000061
C    11.82999992   1.48000002  56.02000427
C    10.47000027   1.25999999  55.68999863
C     9.38000011   1.56000006  56.53999710
C     8.05999947   1.47000003  56.18000031
C     7.73999977   0.88000000  54.93000031
C     8.73000050   0.56000000  54.02999878
C    10.08999920   0.64999998  54.43999863
C    14.25000000   1.21000004  55.20000076
C    14.96999931   0.75000000  54.06000137
C    16.35000038   0.64999998  54.00000000
C     6.32000017   0.45000002  54.64000320
H     5.77325821   1.01804376  53.88734055
H    10.86999989   0.17999999  52.41000366
H    12.25999928   1.71000004  56.98999786
H     9.76000023   1.89999998  57.50999832
H     7.31999969   1.72999990  56.93000031
H     8.60999966   0.06000000  53.06999969
H    16.84999847   0.32999998  53.09000015
H     5.66999960   0.31000000  55.52000046
H     6.30000019  -0.56999999  54.22999954
S    14.11000061  -1.75000000  49.91000366
C    11.44999981  -2.22000003  50.51000214
C    12.76000023  -2.49000001  50.79999924
C    13.22000027  -3.03999996  52.04000092
C    12.25999928  -3.53999996  52.88999939
C    10.88999939  -3.30000019  52.61000061
C     9.86999989  -3.82999992  53.43999863
C     8.56000042  -3.45000005  53.27999878
C     8.19000053  -2.56999993  52.22999954
C     9.11999989  -2.06999993  51.33999634
C    10.46000004  -2.50000000  51.49000168
C    14.65000057  -2.87999988  52.29000092
C    15.24000072  -2.19000006  51.19999695
C    16.54999924  -1.72000003  51.26999664
C     6.72999954  -2.26999998  52.01000214
H     6.24663877  -2.91685104  51.27785110
H    11.25000000  -1.54999995  49.68000031
H    12.51999950  -4.03999996  53.81999969
H    10.19999981  -4.57999992  54.15999985
H     7.77999973  -3.98000002  53.81999969
H     8.73999977  -1.57000005  50.45000076
H    16.87999916  -1.00999999  50.51000214
H     6.17999983  -2.39999986  52.95000076
H     6.54999971  -1.19999993  51.84000015
S    17.89999962  -3.28999996  54.62999725
C    20.61000061  -2.87999988  53.83999634
C    19.25000000  -2.75000000  53.61999893
C    18.85000038  -2.15000010  52.38999939
C    19.76000023  -1.49000001  51.58000183
C    21.14999962  -1.63000000  51.84000015
C    22.14999962  -1.11000001  50.97000122
C    23.50000000  -1.25999999  51.18000031
C    23.92999840  -2.09000015  52.25000000
C    23.01000214  -2.57999992  53.13999939
C    21.61000061  -2.38999987  52.97000122
C    17.39999962  -2.26999998  52.23999786
C    16.77000046  -2.92000008  53.31999969
C    15.42000008  -3.26999998  53.37999725
C    25.38999939  -2.45000005  52.41000366
H    25.95223618  -1.88064742  53.15015793
H    20.76000023  -3.44000006  54.75999832
H    19.40999985  -0.97000003  50.70000076
H    21.90999985  -0.55000001  50.06999969
H    24.21999931  -0.78000003  50.52999878
H    23.44000053  -3.10999990  53.97999573
H    14.98999977  -3.79999995  54.22999954
H    25.82999992  -2.46000004  51.39999771
H    25.43000031  -3.51999998  52.63000107
