96

S    17.94999886   2.07999992  57.97000122
C    20.62000084   2.25000000  57.25999832
C    19.37000084   1.77999997  56.95000076
C    19.04000092   1.38999999  55.61000061
C    20.03999901   1.50000000  54.65999985
C    21.38999939   1.84000003  54.93999863
C    22.46000099   1.77999997  54.00000000
C    23.75000000   2.10999990  54.34000015
C    24.00000000   2.52999997  55.68000031
C    23.00000000   2.59000015  56.62000275
C    21.65999985   2.23000002  56.29000092
C    17.60000038   1.28999996  55.41999817
C    16.90000153   1.69000006  56.59000015
C    15.52999973   1.89999998  56.59999847
C    25.38000107   2.99000001  56.06999969
H    25.81617165   2.33931732  56.82793427
H    20.86000061   2.71000004  58.20999908
H    19.79999924   1.25000000  53.62999725
H    22.13999939   1.51999998  52.98999786
H    24.48999786   2.05999994  53.54999924
H    23.19000053   2.99000001  57.62000275
H    15.11999989   2.28999996  57.52999878
H    26.09999847   3.05000019  55.22999573
H    25.25000000   4.00000000  56.49000168
S    14.34000015   0.76999998  52.95000076
C    11.67000008   0.68000007  53.68999863
C    12.94000053   1.13000000  53.99000168
C    13.32999992   1.62000000  55.27000046
C    12.32999992   1.85000002  56.19999695
C    10.98999977   1.50999999  55.90000153
C     9.98000050   1.58000004  56.90000153
C     8.69999981   1.19000006  56.59000015
C     8.32999992   0.61000001  55.34999847
C     9.30000019   0.54000002  54.36999893
C    10.65000057   0.88999999  54.64000320
C    14.78000069   1.70000005  55.44000244
C    15.43000031   1.25999999  54.26000214
C    16.80999947   1.04999995  54.29000092
C     6.85999966   0.38000000  55.06999969
H     6.45954514   0.83051157  54.16182709
H    11.44999981   0.31000000  52.69000244
H    12.56999969   2.19000006  57.19999695
H    10.34000015   2.01999998  57.83000183
H     7.94000053   1.28999996  57.36000061
H     9.01000023   0.28000000  53.36000061
H    17.26000023   0.75000000  53.34000015
H     6.32000017   0.71999997  55.97000122
H     6.77999973  -0.71000004  54.99000168
S    14.68000031  -1.04999995  50.20000076
C    12.09000015  -1.93000007  50.86000061
C    13.43999958  -1.93000007  51.11999893
C    14.01999950  -2.56999993  52.25999832
C    13.17999935  -3.17000008  53.18000031
C    11.77999973  -3.02999997  53.04000092
C    10.88999939  -3.63000011  53.96999741
C     9.52000046  -3.63000011  53.82999802
C     8.93000031  -2.96999979  52.71999741
C     9.78999996  -2.38000011  51.83000183
C    11.21000099  -2.38000011  51.88999939
C    15.44999981  -2.34999990  52.43999863
C    15.92000008  -1.56000006  51.37000275
C    17.25000000  -1.16999996  51.27999878
C     7.42999983  -2.92000008  52.56000137
H     7.12413073  -2.52165890  51.59259796
H    11.64999962  -1.38999999  50.02999878
H    13.50999928  -3.67000008  54.08000183
H    11.25000000  -4.19999981  54.82999802
H     8.85000038  -4.11000013  54.54000092
H     9.30999947  -1.89999998  50.97999954
H    17.63000107  -0.74000001  50.34999847
H     7.09000015  -3.96000004  52.64999771
H     6.89000034  -2.38000011  53.34999847
S    18.93000031  -2.96000004  54.41999817
C    21.47999954  -2.15000010  53.75999832
C    20.15999985  -2.22000003  53.37999725
C    19.61000061  -1.48000002  52.29000092
C    20.48000145  -0.82999998  51.44000244
C    21.87999916  -0.92000002  51.65000153
C    22.82999992  -0.37000000  50.73999786
C    24.18000031  -0.54000002  50.90999985
C    24.70000076  -1.22000003  52.04999924
C    23.78999901  -1.80000007  52.88999939
C    22.37999916  -1.58999991  52.81999969
C    18.15999985  -1.64000010  52.22999954
C    17.65999985  -2.43000007  53.29999924
C    16.31999969  -2.76999998  53.46000290
C    26.19999886  -1.33000004  52.18000031
H    26.43415451  -1.30871320  53.24433899
H    21.87000084  -2.56999993  54.68000031
H    20.13999939  -0.32999998  50.54000092
H    22.53000069   0.03000000  49.77000427
H    24.93000031  -0.12000000  50.24000168
H    24.23000145  -2.31999993  53.74000168
H    15.90999985  -3.25000000  54.34000015
H    26.70999908  -0.57999998  51.56999969
H    26.60000038  -2.28999996  51.83000183
