96

S    18.23999977   2.34999990  57.52999878
C    20.95000076   2.21000004  56.81999969
C    19.63999939   1.89999998  56.53999710
C    19.23999977   1.21000004  55.34999847
C    20.20000076   0.94999999  54.38000107
C    21.54999924   1.24000001  54.68000031
C    22.63000107   1.00999999  53.77999878
C    23.90999985   1.48000002  53.92000198
C    24.27000046   2.25999999  55.05000305
C    23.26000023   2.53999996  55.93999863
C    21.94999886   1.98000002  55.84999847
C    17.79999924   1.15999997  55.21999741
C    17.13000107   1.54999995  56.39999771
C    15.76000023   1.79000008  56.44000244
C    25.72000122   2.61999989  55.31000137
H    26.21118164   1.97220969  56.03609467
H    21.21000099   2.73999977  57.74000168
H    20.00999832   0.54000002  53.39000320
H    22.42000198   0.61000001  52.78999710
H    24.57999992   1.36999989  53.06999969
H    23.48999977   3.02999997  56.86999893
H    15.39999962   2.29999995  57.32999802
H    26.25999832   2.76999998  54.36999893
H    25.52999878   3.63999987  55.65999985
S    14.52999973   0.59000003  52.78999710
C    11.82999992   0.57999998  53.62999725
C    13.15000057   0.90999997  53.86000061
C    13.53999996   1.44999993  55.12000275
C    12.55000019   1.71000004  56.04999924
C    11.18000031   1.39999998  55.83000183
C    10.11999989   1.46000004  56.77999878
C     8.80999947   1.19000006  56.45999908
C     8.53999996   0.52999997  55.22999573
C     9.55999947   0.14999999  54.38000107
C    10.80000019   0.82999998  54.56999969
C    14.98999977   1.47000003  55.31000137
C    15.62000084   1.08000004  54.09999847
C    17.00000000   0.88999999  54.09000015
C     7.20000029  -0.14999999  55.02999878
H     6.59728241   0.46689904  54.36346436
H    11.56999969   0.11000000  52.68000031
H    12.94000053   1.92000008  57.04000092
H    10.38000011   1.62000000  57.81999969
H     8.06999969   1.24000001  57.25000000
H     9.50000000  -0.56999999  53.56999969
H    17.46000099   0.59000003  53.15999985
H     6.72999954  -0.28999999  56.00999832
H     7.34000015  -1.14999998  54.61999893
S    18.72999954   2.57999992  51.75000000
C    21.38999939   2.50999975  50.97999954
C    20.07999802   2.25999999  50.63999939
C    19.70000076   1.71000004  49.38000107
C    20.68000031   1.69000006  48.40999985
C    22.01999855   2.02999997  48.72000122
C    23.02000046   2.02999997  47.70000076
C    24.34000015   2.25000000  48.04000092
C    24.76000023   2.69000006  49.31999969
C    23.78000069   2.86000013  50.27999878
C    22.43000031   2.51999998  50.00999832
C    18.23999977   1.63000000  49.33000183
C    17.57999992   2.10999990  50.47999954
C    16.20000076   2.26999998  50.61999893
C    26.21999931   2.89999986  49.65000153
H    26.56908417   2.24457479  50.44791031
H    21.59000015   2.84000015  52.00000000
H    20.53999901   1.38999999  47.36999893
H    22.65000153   1.82999992  46.70000076
H    25.07999802   2.24000001  47.23999786
H    24.04000092   2.99000001  51.32999802
H    15.64000034   2.61999989  51.47999573
H    26.77999878   2.68000007  48.73000336
H    26.45999908   3.91999984  49.97000122
S    14.98000050   0.90000004  47.05999756
C    12.32999992   0.97000003  47.77999878
C    13.61999989   1.31999993  48.11999893
C    13.97999954   1.94000006  49.36000061
C    12.97999954   2.16000009  50.27999878
C    11.64999962   1.75000000  50.04000092
C    10.54999924   1.93000007  50.93999863
C     9.28999996   1.43000007  50.73999786
C     9.00000000   0.79000002  49.51000214
C    10.01000023   0.69000000  48.57999802
C    11.38000011   1.01999998  48.82999802
C    15.43000031   1.98000002  49.48999786
C    16.06999969   1.53999996  48.30999756
C    17.43999863   1.31999993  48.22000122
C     7.55999994   0.38000000  49.25000000
H     7.10287857   1.00854135  48.48575211
H    12.06999969   0.74000001  46.75000000
H    13.20000076   2.47000003  51.30000305
H    10.67999935   2.50999975  51.84000015
H     8.56000042   1.71000004  51.50000000
H     9.78999996   0.46999997  47.54000092
H    17.75000000   0.75999999  47.34000397
H     6.94999981   0.48999998  50.14999771
H     7.62000036  -0.65999997  48.92000198
