96

S    11.98999977  16.97000122  44.20000076
C     9.35000038  17.04000092  44.98000336
C    10.62999916  16.69999886  45.27000046
C    10.98000050  16.23999977  46.58000183
C    10.07999992  16.13000107  47.63000107
C     8.73999977  16.39999962  47.27000427
C     7.72000027  16.13000107  48.22999954
C     6.44000006  16.59000015  47.95000076
C     6.09000015  17.05000114  46.65000153
C     7.09999990  17.14999962  45.68999863
C     8.39999962  16.84999847  45.98999786
C    12.43000031  16.11999893  46.69000244
C    13.07999992  16.48999977  45.52000046
C    14.47000027  16.51000023  45.44000244
C     4.80999994  17.64000130  46.36000061
H     4.37716007  17.11491776  45.50851059
H     9.09000015  17.50000000  44.02999878
H    10.29000092  15.77000046  48.62999725
H     8.05000019  15.86999989  49.23999786
H     5.72000027  16.54999924  48.75999832
H     6.80999994  17.61999893  44.75999832
H    14.98999977  16.69999886  44.51000214
H     4.13999987  17.65999985  47.22000122
H     4.98000002  18.68000031  46.06999969
S    15.57999992  15.29999924  49.08000183
C    18.19000053  15.03000069  48.41999817
C    16.93000031  15.29000092  47.98999786
C    16.63999939  15.80000019  46.70999908
C    17.67000008  15.92000008  45.83000183
C    18.97999954  15.39999962  46.06999969
C    20.07999802  15.31999969  45.18000031
C    21.31000137  14.78999996  45.58000183
C    21.48999977  14.32000065  46.90000153
C    20.46999931  14.45000076  47.81999969
C    19.22000122  15.01000023  47.45999908
C    15.25000000  16.13999939  46.58000183
C    14.51000023  15.84000015  47.76000214
C    13.17999935  15.88000107  47.87000275
C    22.79000092  13.71000099  47.42000198
H    23.02273560  14.13910675  48.39458084
H    18.31999969  14.85000038  49.48999786
H    17.46999931  16.28000069  44.81999969
H    20.06000137  15.60999966  44.13000107
H    22.11000061  14.63999939  44.86000061
H    20.53999901  14.06000042  48.83999634
H    12.68000031  15.65000057  48.81000137
H    23.59000015  13.88000011  46.69000244
H    22.67999840  12.63000011  47.56999969
S    12.05000019  16.59000015  51.04999924
C     9.44000053  17.23999977  51.79999924
C    10.67000008  16.75000000  52.15000153
C    10.95999908  16.54000092  53.50000000
C     9.98000050  16.61000061  54.45999908
C     8.71999931  17.10000038  54.09999847
C     7.63999987  17.05000114  55.10000229
C     6.35999966  17.35000038  54.69999695
C     6.07999992  17.73999977  53.34999847
C     7.13000011  17.89999962  52.41000366
C     8.42000008  17.43999863  52.77999878
C    12.43000031  16.36999893  53.66000366
C    13.09000015  16.42000008  52.43000031
C    14.50000000  16.46000099  52.35000229
C     4.69999981  18.05999947  52.95999908
H     4.24704123  17.39101410  52.22829819
H     9.15000057  17.26000023  50.75000000
H    10.15999985  16.01000023  55.34999847
H     7.85000038  16.77999878  56.13999939
H     5.69000006  17.53999901  55.52999878
H     6.88000011  18.25000000  51.40999603
H    14.88000011  16.39000130  51.33999634
H     4.01999998  18.19000053  53.81999969
H     4.72000027  19.07999992  52.54000092
S    15.52999973  15.67999935  56.17000198
C    18.20000076  15.05000019  55.43000031
C    16.94000053  15.48999977  55.07999802
C    16.68000031  15.82999992  53.69999695
C    17.64999962  15.90999985  52.76000214
C    18.97999954  15.70000076  53.15000153
C    19.98999977  15.60999966  52.15999985
C    21.25000000  15.22999954  52.48000336
C    21.48999977  14.75999928  53.79000092
C    20.48000145  14.68000031  54.72999954
C    19.18000031  15.10000038  54.41999817
C    15.27999973  16.21000099  53.54000092
C    14.55000019  16.18000031  54.82999802
C    13.15000057  16.29999924  54.82999802
C    22.88000107  14.32999992  54.19000244
H    23.29932594  14.87512398  55.03564072
H    18.34000015  14.48999977  56.36000061
H    17.38000107  16.13999939  51.72999954
H    19.62000084  15.72000027  51.13999939
H    22.00000000  15.17000008  51.69000244
H    20.65999985  14.34999943  55.75000000
H    12.65999985  16.23999977  55.79999924
H    23.54999924  14.34000015  53.31999969
H    22.86000061  13.28999996  54.52000046
