96

S    12.42000008  16.65999985  43.79000092
C     9.67000008  17.02999878  44.43000031
C    10.97000027  16.75000000  44.81999969
C    11.31000042  16.32999992  46.14999771
C    10.34000015  16.15999985  47.11000061
C     9.02000046  16.50000000  46.73999786
C     8.00000000  16.44000053  47.74000168
C     6.72999954  16.77999878  47.36999893
C     6.42000008  17.46000099  46.13999939
C     7.36999989  17.61000061  45.21999741
C     8.69999981  17.11000061  45.45999908
C    12.71999931  16.10999870  46.31000137
C    13.48000050  16.23999977  45.15999603
C    14.86999989  16.42000008  45.20000076
C     5.05000019  17.79999924  45.84000015
H     4.67834044  17.28107834  44.95643234
H     9.48000050  17.35000038  43.40000153
H    10.60999966  15.97000027  48.15000153
H     8.31999969  16.13999939  48.73000336
H     5.91000032  16.53000069  48.04000092
H     7.16000032  17.81999969  44.16999817
H    15.48999977  16.77000046  44.38999939
H     4.50000000  17.53999901  46.76000214
H     4.84000015  18.86999893  45.68000031
S    15.71000004  15.82999992  48.97999573
C    18.51000023  15.55999947  48.31999969
C    17.20999908  15.90999985  47.98999786
C    16.88999939  16.21999931  46.62000275
C    17.86000061  16.31000137  45.68999863
C    19.19000053  15.95999908  46.03000259
C    20.28000069  15.78999996  45.06000137
C    21.52000046  15.31999969  45.44000244
C    21.75000000  14.78000069  46.76000214
C    20.76000023  14.88000011  47.65999603
C    19.52999878  15.54999924  47.37999725
C    15.51000023  16.27000046  46.38999939
C    14.70999908  16.02000046  47.55000305
C    13.34000015  16.00000000  47.51999664
C    23.13999939  14.55000019  47.25999832
H    23.41040230  15.15320587  48.12667465
H    18.73999977  15.22999954  49.33000183
H    17.56000137  16.35000038  44.65000153
H    20.10000038  16.10999870  44.03999710
H    22.32999992  15.50000000  44.75000000
H    20.90999985  14.59000015  48.68999863
H    12.84000015  16.05999947  48.47999954
H    23.88000107  14.53999996  46.45000076
H    23.09999847  13.50000000  47.58999634
S    11.80999947  16.75000000  51.19999695
C     9.17000008  17.13999939  51.81000137
C    10.40999985  16.79999924  52.21000290
C    10.75000000  16.48999977  53.60000229
C     9.72000027  16.51000023  54.48999786
C     8.45000076  17.05000114  54.15000153
C     7.40999985  17.02999878  55.06999969
C     6.14000034  17.23999977  54.65000153
C     5.77000046  17.54999924  53.31999969
C     6.78999996  17.56999969  52.38999939
C     8.17000008  17.28000069  52.74000168
C    12.18999958  16.27000046  53.73000336
C    12.86000061  16.43000031  52.50000000
C    14.22999954  16.53000069  52.44999695
C     4.28000021  17.84000015  53.06999969
H     3.89843678  17.35764694  52.17008591
H     8.97000027  17.27000046  50.75000000
H     9.92999935  16.10999870  55.47999954
H     7.60999966  16.68000031  56.07999802
H     5.29999971  17.11000061  55.33000183
H     6.54999971  17.75000000  51.33999634
H    14.65000057  16.62999916  51.45000076
H     3.65999985  17.57999992  53.93000031
H     4.11999989  18.92000008  52.97999954
S    15.42000008  15.78999996  56.12999725
C    17.97999954  15.10000038  55.27000046
C    16.76000023  15.62000084  54.98000336
C    16.39000130  16.05999947  53.69999695
C    17.39999962  16.03999901  52.74000168
C    18.73999977  15.70000076  53.15000153
C    19.85000038  15.90000057  52.21000290
C    21.14999962  15.46000004  52.50999832
C    21.47999954  14.94999981  53.81000137
C    20.42000008  14.80000019  54.65999985
C    19.03000069  15.18000031  54.36000061
C    14.98999977  16.31999969  53.56999969
C    14.29999924  16.04999924  54.79999924
C    12.94000053  15.98000050  54.86000061
C    22.90999985  14.65000057  54.20999908
H    23.02527428  14.88054848  55.26908493
H    18.34000015  14.91000080  56.27999878
H    17.20000076  16.29999924  51.70000076
H    19.65999985  16.39000130  51.25000000
H    21.94000053  15.55999947  51.77999878
H    20.43999863  14.45000076  55.68999863
H    12.51000023  15.71000004  55.81999969
H    23.48999977  15.36000061  53.59000397
H    23.31999969  13.68999958  53.86000061
