96

S    12.89000034  16.97000122  44.12000275
C    10.11000061  17.04000092  44.71000290
C    11.44000053  16.84000015  45.13000107
C    11.84000015  16.53000069  46.45999908
C    10.80999947  16.27000046  47.30999756
C     9.42000008  16.46000099  47.01000214
C     8.32999992  16.36000061  47.90999985
C     7.03999996  16.63999939  47.49000168
C     6.72999954  17.31999969  46.26999664
C     7.78999996  17.48999977  45.40999985
C     9.11000061  16.94000053  45.70000076
C    13.25000000  16.42000008  46.65000153
C    13.93000031  16.61999893  45.40000153
C    15.32999992  16.43000031  45.34000015
C     5.29999971  17.72999954  45.91999817
H     4.90685654  17.28681946  45.00505066
H     9.85999966  17.45000076  43.73000336
H    11.10999966  15.88000107  48.27999878
H     8.52000046  15.95999908  48.90999603
H     6.26999950  16.47999954  48.25000000
H     7.59000015  18.02999878  44.48999786
H    15.76000023  16.44000053  44.34000015
H     4.59000015  17.50000000  46.72000122
H     5.19000006  18.79999924  45.68999863
S    16.39000130  15.21999931  48.92000198
C    19.00000000  14.70000076  48.23999786
C    17.79000092  15.21999931  47.90000153
C    17.52000046  15.62999916  46.60999680
C    18.52000046  15.59000015  45.63000107
C    19.75000000  15.13000011  45.91999817
C    20.82999992  15.11000061  45.00999832
C    22.07999992  14.80000019  45.41999817
C    22.30999947  14.47999954  46.72999954
C    21.31999969  14.55999947  47.65999603
C    20.00999832  14.80999947  47.28000259
C    16.06999969  16.03999901  46.45000076
C    15.43000031  15.80999947  47.68000031
C    14.04999924  15.95000076  47.78999710
C    23.68000031  14.06000042  47.27000427
H    23.91902542  14.68291664  48.13194656
H    19.23999977  14.26000023  49.20000076
H    18.34000015  15.97000027  44.62999725
H    20.61000061  15.54999924  44.02999878
H    22.90999985  14.96999931  44.73999786
H    21.50000000  14.27999973  48.69999695
H    13.52000046  15.72999954  48.70999908
H    24.34000015  14.26000023  46.42000198
H    23.71000099  12.98999977  47.49000168
S    11.92000008  16.87000084  50.70999908
C     9.30999947  17.42000008  51.43000031
C    10.52999973  16.97999954  51.77999878
C    10.93000031  16.61999893  53.11000061
C     9.98000050  16.48999977  54.10999680
C     8.69000053  16.95000076  53.81999969
C     7.55999994  16.88999939  54.75999832
C     6.34999990  17.46999931  54.54000092
C     6.09000015  17.97999954  53.29999924
C     7.03999996  17.94000053  52.28000259
C     8.38999939  17.46999931  52.48000336
C    12.30999947  16.42000008  53.26000214
C    12.97999954  16.54999924  52.02999878
C    14.34000015  16.48999977  51.93999863
C     4.63000011  18.34000015  52.88999939
H     4.25695181  17.68716621  52.10086060
H     9.06999969  17.59000015  50.38000107
H    10.14000034  16.04999924  55.08999634
H     7.73999977  16.29999924  55.65000153
H     5.69000006  17.38000107  55.40000153
H     6.78999996  18.20999908  51.25000000
H    14.84000015  16.18999863  51.02000427
H     3.88000011  18.29000092  53.68000031
H     4.53999996  19.36000061  52.50999832
S    15.42000008  16.01000023  55.77999878
C    18.04000092  15.40999985  55.00000000
C    16.77000046  15.85999966  54.69999695
C    16.43000031  16.20000076  53.34999847
C    17.39999962  16.11999893  52.36000061
C    18.78999901  15.85999966  52.60000229
C    19.80999947  15.80999947  51.69000244
C    21.11999893  15.52999973  52.05999756
C    21.44000053  15.15999985  53.36999893
C    20.48000145  15.07999992  54.34999847
C    19.11000061  15.44999981  54.00000000
C    15.01999950  16.44000053  53.15000153
C    14.34000015  16.31000137  54.40999985
C    13.00000000  16.23999977  54.47999954
C    22.81999969  14.78999996  53.73000336
H    23.00780296  15.22339058  54.71234894
H    18.19000053  15.29000092  56.06999969
H    17.11000061  16.03000069  51.31000137
H    19.64999962  16.04999924  50.63999939
H    21.90000153  15.34999943  51.31999969
H    20.75000000  14.75000000  55.34000015
H    12.48999977  15.90999985  55.38000107
H    23.50000000  15.10000038  52.93000031
H    22.89999962  13.69999981  53.87000275
