96

S    11.76000023  16.59000015  44.27999878
C     9.22000027  17.05000114  45.10000229
C    10.44999981  16.64999962  45.45000076
C    10.85000038  16.38000107  46.77000046
C     9.89000034  16.31999969  47.77999878
C     8.56000042  16.77000046  47.49000168
C     7.50999975  16.84000015  48.46000290
C     6.26999950  17.22999954  48.09999847
C     5.92999983  17.53000069  46.75000000
C     6.91999960  17.53999901  45.79999924
C     8.23000050  17.09000015  46.12999725
C    12.28999996  16.21999931  46.84999847
C    12.94000053  16.28000069  45.63000107
C    14.37000084  16.06999969  45.54999924
C     4.48999977  17.79000092  46.36000061
H     4.23810673  17.26462364  45.43878937
H     8.93000031  17.39999962  44.12000275
H    10.07999992  16.20000076  48.83999634
H     7.73999977  16.42000008  49.43000031
H     5.50000000  17.22999954  48.87000275
H     6.75000000  17.84000015  44.77000427
H    14.98999977  15.98999977  44.65999985
H     3.78999996  17.48999977  47.14000320
H     4.42000008  18.88000107  46.19999695
S    15.43000031  15.53999996  49.31999969
C    18.06999969  15.00000000  48.62999725
C    16.80999947  15.47000027  48.22000122
C    16.56999969  15.71000004  46.86000061
C    17.59000015  15.52999973  45.86999893
C    18.89000130  15.18000031  46.25000000
C    19.93999863  15.21000004  45.31000137
C    21.12999916  14.73000050  45.68999863
C    21.45999908  14.45000076  47.05999756
C    20.48000145  14.55999947  48.04999924
C    19.14999962  14.92000008  47.64999771
C    15.19000053  15.98999977  46.70999908
C    14.42000008  15.77999973  47.91999817
C    13.09000015  15.92000008  48.00000000
C    22.88000107  14.02999973  47.35000229
H    23.22753716  14.62577820  48.19401932
H    18.15999985  14.47000027  49.56999969
H    17.34000015  15.78999996  44.84000397
H    19.78999901  15.54999924  44.29000092
H    21.94000053  14.56999969  44.99000168
H    20.73999786  14.28999996  49.06999969
H    12.71000004  15.77999973  49.00000000
H    23.46999931  14.32000065  46.46999741
H    22.86000061  12.97000027  47.63999939
S    16.29999924  13.03999996  52.50000000
C    18.79999924  12.32999992  51.69000244
C    17.45000076  12.35999966  51.44000244
C    16.87999916  12.01000023  50.13999939
C    17.75000000  11.51999950  49.20000076
C    19.13999939  11.46999931  49.45000076
C    20.06000137  10.82999992  48.55999756
C    21.38000107  10.65999985  48.94000244
C    21.86000061  11.17000008  50.12000275
C    21.07000160  11.87999916  51.00000000
C    19.69000053  11.97999954  50.68000031
C    15.47999954  12.38999939  50.01999664
C    15.01999950  12.94000053  51.23000336
C    13.71000099  13.34000015  51.39999771
C    23.31999969  10.98000050  50.43000031
H    23.68462372  11.52693748  51.29948807
H    19.13999939  12.56999969  52.70000076
H    17.46999931  11.26000023  48.18999863
H    19.61000061  10.42000008  47.65999603
H    22.03000069  10.03999901  48.33000183
H    21.31999969  12.06999969  52.04999924
H    13.40999985  13.61999989  52.39999771
H    23.59999847   9.92000008  50.43000031
H    23.85999870  11.32999992  49.52999878
S    12.13999939  12.25999928  47.76000214
C     9.47000027  12.71000004  48.67000198
C    10.86999989  12.76999950  48.89999771
C    11.39999962  13.07999992  50.21999741
C    10.46000004  13.47000027  51.20999908
C     9.11999989  13.61999989  50.91999817
C     8.19000053  14.04000092  51.90999985
C     6.83000040  14.09999943  51.66999817
C     6.30999994  13.76999950  50.41999817
C     7.17999983  13.31999969  49.47999954
C     8.57999992  13.17000008  49.65999985
C    12.84000015  13.02999973  50.31999969
C    13.40000057  12.51000023  49.02999878
C    14.70999908  12.31999969  48.85000229
C     4.81999969  13.96999931  50.05000305
H     4.55683947  13.63758659  49.04583740
H     9.10000038  12.53999901  47.65999603
H    10.82999992  13.61999989  52.22000122
H     8.59000015  14.25000000  52.88999939
H     6.21999979  14.61999989  52.41000366
H     6.85999966  13.01000023  48.48999786
H    15.21999931  12.00000000  47.95000076
H     4.69999981  15.06000042  50.14999771
H     4.13000011  13.55000019  50.79000092
