96

S    12.64999962  16.98999977  44.20999908
C    10.01000023  17.27000046  44.69999695
C    11.21999931  16.76000023  45.07999802
C    11.49000072  16.11999893  46.31999969
C    10.44000053  16.02000046  47.18000031
C     9.13000011  16.50000000  46.86000061
C     8.05000019  16.54000092  47.77000046
C     6.84999990  17.01000023  47.41000366
C     6.57999992  17.50000000  46.18000031
C     7.57999992  17.63000107  45.26000214
C     8.94999981  17.20000076  45.58000183
C    12.90999985  15.88000107  46.62000275
C    13.60999966  16.46000099  45.56000137
C    14.96999931  16.54000092  45.54999924
C     5.18000031  17.90999985  45.80999756
H     4.75475025  17.31464958  45.00202560
H     9.84000015  17.65999985  43.69999695
H    10.57999992  15.57000065  48.15999985
H     8.23999977  16.13000107  48.76999664
H     6.03999996  17.00000000  48.13999939
H     7.36999989  17.88999939  44.22999954
H    15.52000046  16.97999954  44.72000122
H     4.46999979  17.86999893  46.65000153
H     5.09999990  18.96000099  45.50000000
S    16.00000000  15.05000019  49.10999680
C    18.78000069  15.01000023  48.40999985
C    17.48999977  15.46000004  48.11999893
C    17.12000084  15.98000050  46.79000092
C    18.15000153  16.00000000  45.84000015
C    19.52000046  15.65000057  46.11999893
C    20.62999916  15.59999943  45.24000168
C    21.86000061  15.10000038  45.56000137
C    22.10000038  14.65999985  46.90000153
C    21.09999847  14.68000031  47.81999969
C    19.81999969  15.17000008  47.45999908
C    15.71000004  16.03000069  46.65999985
C    14.93999958  15.53999996  47.77000046
C    13.56999969  15.50000000  47.77000046
C    23.46999931  14.34999943  47.39999771
H    23.73990440  14.85520744  48.32736969
H    18.88000107  14.40000057  49.31000137
H    17.88999939  16.38000107  44.86000061
H    20.55999947  16.14999962  44.31000137
H    22.65000153  15.00000000  44.81999969
H    21.28000069  14.23999977  48.80000305
H    13.05999947  15.22999954  48.68999863
H    24.25000000  14.51000023  46.65000153
H    23.40999985  13.27000046  47.60000229
S    15.81999969  12.90999985  52.30999756
C    18.53000069  12.36999989  51.51000214
C    17.15999985  12.27000046  51.31000137
C    16.60000038  11.65999985  50.05000305
C    17.51000023  11.23999977  49.15000153
C    18.90999985  11.21999931  49.41999817
C    19.88000107  10.69000053  48.50999832
C    21.21999931  10.72000027  48.72000122
C    21.68999863  11.14999962  50.00999832
C    20.78000069  11.73999977  50.93000031
C    19.38999939  11.79999924  50.61000061
C    15.19000053  11.87000084  49.92000198
C    14.63999939  12.51000023  51.05999756
C    13.30999947  12.90999985  51.20999908
C    23.19000053  11.09000015  50.31999969
H    23.49410629  11.62749100  51.21817780
H    18.89999962  12.84999943  52.41000366
H    17.28999901  10.93999958  48.13000107
H    19.48999977  10.27999973  47.57999802
H    21.90000153  10.65000057  47.87000275
H    21.09999847  12.15999985  51.88000107
H    13.00000000  13.50000000  52.06999969
H    23.38999939  10.01000023  50.27000046
H    23.72999954  11.52999973  49.47999954
S    11.97999954  12.20999908  47.56000137
C     9.25000000  12.76999950  48.29999924
C    10.62000084  12.71000004  48.62999725
C    11.13000011  13.09000015  49.94999695
C    10.17000008  13.63000011  50.81999969
C     8.80000019  13.76000023  50.48999786
C     7.88999987  14.19000053  51.50000000
C     6.63000011  14.42000008  51.18999863
C     6.03999996  14.06000042  49.93000031
C     6.88000011  13.53000069  48.95000076
C     8.30999947  13.35000038  49.19000244
C    12.53999901  12.81000042  50.05000305
C    13.09000015  12.25000000  48.83999634
C    14.40000057  11.76000023  48.80000305
C     4.71000004  14.55000019  49.40000153
H     4.44068718  13.93341541  48.54244995
H     8.89999962  12.36999989  47.35000229
H    10.64000034  13.76999950  51.79000092
H     8.34000015  14.52000046  52.43999863
H     6.11999989  15.03000069  51.93000031
H     6.57000017  13.43000031  47.90999985
H    14.88999939  11.49000072  47.87000275
H     4.75000000  15.59999943  49.09000015
H     3.91000009  14.51000023  50.14999771
