96

S    12.38999939  17.04000092  44.02000046
C     9.77999973  17.63000107  44.79999924
C    11.00000000  17.09000015  45.08999634
C    11.31000042  16.57999992  46.35000229
C    10.43000031  16.61000061  47.36999893
C     9.13999939  17.13000107  47.09999847
C     8.01999950  16.84999847  48.04999924
C     6.71000004  17.13000107  47.70999908
C     6.44000006  17.87999916  46.50000000
C     7.42000008  18.01000023  45.59999847
C     8.78999996  17.65999985  45.81999969
C    12.71000004  16.29999924  46.52999878
C    13.43999958  16.53000069  45.34000015
C    14.78999996  16.36000061  45.26000214
C     5.01999950  18.00000000  46.06999969
H     4.71550274  17.28950691  45.30150604
H     9.48999977  17.92000008  43.80000305
H    10.67000008  16.42000008  48.40999985
H     8.15999985  16.03000069  48.75000000
H     5.88999987  16.81999969  48.36000061
H     7.11999989  18.34000015  44.61000061
H    15.29999924  16.63999939  44.34000015
H     4.44999981  17.79999924  46.97999954
H     4.84000015  19.03000069  45.73999786
S    15.85999966  15.59999943  49.05000305
C    18.43000031  15.01999950  48.34000015
C    17.17000008  15.47000027  47.98999786
C    16.95000076  15.72000027  46.59999847
C    18.05999947  15.69000053  45.70999908
C    19.32999992  15.39000034  46.05999756
C    20.43000031  15.21999931  45.15999603
C    21.60000038  14.70000076  45.68000031
C    21.77000046  14.48999977  47.02999878
C    20.73999786  14.63000107  47.90999985
C    19.51000023  15.03999901  47.42000198
C    15.54999924  15.93999958  46.38000107
C    14.84000015  15.86999989  47.57999802
C    13.45999908  15.88999939  47.64999771
C    23.23999786  14.19000053  47.50999832
H    23.55197334  14.78558826  48.36793137
H    18.60999870  14.68000031  49.34999847
H    17.75000000  15.76000023  44.66999817
H    20.22999954  15.38000011  44.10999680
H    22.55000114  14.65000057  45.15999603
H    20.89999962  14.47999954  48.96999741
H    12.86000061  15.59000015  48.50999832
H    23.95000076  14.50000000  46.72999954
H    23.47999954  13.12000084  47.52999878
S    16.51000023  12.98999977  52.09999847
C    19.03000069  12.35999966  51.39999771
C    17.75000000  12.51000023  51.02000427
C    17.20000076  12.07999992  49.75999832
C    18.04999924  11.64999962  48.80000305
C    19.43000031  11.59000015  49.03999710
C    20.38000107  11.09000015  48.08000183
C    21.68999863  10.90000057  48.48999786
C    22.19000053  11.18000031  49.73999786
C    21.34000015  11.71000004  50.68000031
C    19.93000031  11.87000084  50.37000275
C    15.77000046  12.25000000  49.68000031
C    15.26000023  12.65999985  50.90999985
C    13.88000011  12.90999985  51.11000061
C    23.52000046  10.52000046  50.20999908
H    23.78218079  10.92390156  51.18786621
H    19.34000015  12.53999901  52.42000198
H    17.57999992  11.18999958  47.93000031
H    19.98999977  10.77999973  47.11000061
H    22.29999924  10.39000034  47.75000000
H    21.67000008  11.77000046  51.70999908
H    13.45000076  13.27999973  52.04000092
H    23.35000038   9.44000053  50.24000168
H    24.33000183  10.65999985  49.47999954
S    12.31999969  11.90999985  47.65999603
C     9.73999977  12.72999954  48.33000183
C    11.06999969  12.69000053  48.62999725
C    11.61999893  13.02000046  49.92000198
C    10.71000004  13.48999977  50.90999985
C     9.31999969  13.61999989  50.61999893
C     8.39999962  14.01000023  51.59999847
C     7.03000021  14.07999992  51.25000000
C     6.60000038  13.73000050  49.98000336
C     7.48000050  13.30000019  48.99000168
C     8.82000065  13.17000008  49.33000183
C    13.02000046  12.76999950  50.01999664
C    13.55999947  12.30000019  48.83999634
C    14.94999981  12.03999996  48.57999802
C     5.19999981  14.09999943  49.59000015
H     4.98548079  13.66404152  48.61428452
H     9.35999966  12.25000000  47.43999863
H    11.11999989  13.96000004  51.79999924
H     8.80000019  14.40000057  52.54000092
H     6.32000017  14.61999989  51.86999893
H     7.13000011  13.10999966  47.97999954
H    15.34000015  11.77999973  47.60000229
H     5.12000036  15.19000053  49.59999847
H     4.53999996  13.78000069  50.40999985
