96

S    12.41000080  17.13999939  44.48999786
C     9.77999973  17.13000107  45.05000305
C    10.98999977  16.63999939  45.37000275
C    11.28000069  16.13999939  46.65999985
C    10.22999954  16.03999901  47.61000061
C     8.93999958  16.54999924  47.29000092
C     7.96000004  16.72000122  48.29000092
C     6.69000053  17.17000008  47.95999908
C     6.37000036  17.48999977  46.56000137
C     7.36000013  17.56999969  45.59000015
C     8.69999981  17.11000061  45.97999954
C    12.76999950  16.10000038  46.88000107
C    13.45999908  16.51000023  45.70000076
C    14.88999939  16.46000099  45.65000153
C     5.05000019  17.93000031  46.11999893
H     4.68246698  17.42554283  45.22638702
H     9.61999989  17.57999992  44.06999969
H    10.52000046  15.86999989  48.63999939
H     8.27999973  16.42000008  49.29000092
H     5.86000013  17.28999901  48.63999939
H     7.32999992  18.18000031  44.68999863
H    15.47999954  16.90000153  44.85000229
H     4.30000019  17.78000069  46.90999985
H     5.00000000  19.02000046  45.97000122
S    15.92000008  15.36999893  49.34999847
C    18.63999939  15.07999992  48.61000061
C    17.35999870  15.54999924  48.27999878
C    17.06999969  16.02000046  46.93000031
C    18.04000092  16.03000069  46.00000000
C    19.34999847  15.65999985  46.36000061
C    20.30999947  15.78999996  45.40999985
C    21.59000015  15.39000034  45.63000107
C    21.88999939  14.65999985  46.84999847
C    20.85000038  14.46000004  47.77000046
C    19.61000061  15.06999969  47.61000061
C    15.59999943  16.07999992  46.79999924
C    14.89999962  15.78999996  47.97999954
C    13.45999908  15.65999985  48.01000214
C    23.32999992  14.34999943  47.21000290
H    23.67884064  14.91953468  48.07142258
H    18.78999901  14.75000000  49.62999725
H    17.80999947  16.21999931  44.94999695
H    20.09000015  16.18000031  44.41999817
H    22.32999992  15.67000008  44.88999939
H    21.04999924  14.11999893  48.79000092
H    12.93000031  15.47999954  48.94000244
H    23.97999954  14.63000107  46.38000107
H    23.51000023  13.27000046  47.28000259
S    12.35000038  16.90999985  51.06999969
C     9.64999962  17.38999939  51.72000122
C    10.88999939  16.87000084  52.02999878
C    11.23000050  16.43000031  53.34000015
C    10.22999954  16.38000107  54.29000092
C     8.93999958  16.84999847  54.02000046
C     7.88000011  16.70999908  54.95999908
C     6.63000011  17.09000015  54.65999985
C     6.30999994  17.67000008  53.34999847
C     7.27999973  17.73999977  52.38999939
C     8.64999962  17.38999939  52.67000198
C    12.67000008  16.28000069  53.54999924
C    13.43000031  16.54999924  52.39999771
C    14.84000015  16.53000069  52.29999924
C     4.92000008  18.12999916  52.90999985
H     4.49749231  17.60890579  52.05090332
H     9.52999973  17.79000092  50.70999908
H    10.29999924  15.88999939  55.25000000
H     8.02999973  16.26000023  55.93999863
H     5.78000021  16.72000122  55.21999741
H     7.18999958  18.13999939  51.38000107
H    15.29999924  16.87000084  51.38000107
H     4.30000019  18.23999977  53.81000137
H     5.01999950  19.19000053  52.65999603
S    15.86999989  15.60999966  55.97000122
C    18.53000069  15.21999931  55.18000031
C    17.28000069  15.64000034  54.86999893
C    16.93000031  16.10999870  53.61000061
C    17.89999962  16.23999977  52.58999634
C    19.20999908  15.90999985  52.90000153
C    20.29999924  16.03000069  51.95000076
C    21.56999969  15.57000065  52.23999786
C    21.81999969  14.98999977  53.50000000
C    20.88000107  15.10000038  54.55999756
C    19.54000092  15.40999985  54.20999908
C    15.47999954  16.25000000  53.50999832
C    14.73000050  16.04999924  54.68000031
C    13.35999966  16.03000069  54.68000031
C    23.09999847  14.37999916  53.87000275
H    23.44600487  14.95667458  54.72780609
H    18.75000000  14.78999996  56.14999771
H    17.63000107  16.38000107  51.53999710
H    20.12000084  16.53000069  51.00000000
H    22.30999947  15.71000004  51.45000076
H    21.05999947  14.84000015  55.59999847
H    12.84000015  15.76000023  55.59000015
H    23.88000107  14.53999996  53.11000061
H    23.02999878  13.31999969  54.15999985
