96

S    12.68000031  16.84000015  44.13999939
C    10.03999901  17.43999863  44.77000427
C    11.31999969  17.00000000  45.17000198
C    11.56000042  16.59000015  46.51000214
C    10.52000046  16.68000031  47.44999695
C     9.19999981  17.02999878  47.05999756
C     8.18000031  16.87999916  48.01000214
C     6.90999985  17.39999962  47.67000198
C     6.65000010  17.94000053  46.35000229
C     7.65999985  17.94000053  45.37000275
C     8.97999954  17.48999977  45.68000031
C    13.00000000  16.40999985  46.76000214
C    13.73999977  16.47999954  45.52999878
C    15.13000011  16.31000137  45.47000122
C     5.26000023  18.43000031  45.93000031
H     4.86701488  17.76774788  45.15858459
H     9.94000053  17.79999924  43.75000000
H    10.57999992  16.22999954  48.43999863
H     8.38999939  16.48999977  49.00000000
H     6.05999994  17.46000099  48.34999847
H     7.32999992  18.36000061  44.43000031
H    15.57999992  16.39000130  44.47999954
H     4.59999990  18.47999954  46.79999924
H     5.36999989  19.42000008  45.47999954
S    16.15999985  15.62000084  49.29000092
C    18.90999985  15.39999962  48.59000397
C    17.57999992  15.70000076  48.25000000
C    17.19000053  15.88999939  46.86000061
C    18.15999985  15.77000046  45.84999847
C    19.48999977  15.48999977  46.17000198
C    20.50000000  15.44000053  45.19000244
C    21.87000084  15.13000011  45.45999908
C    22.19000053  14.94999981  46.81000137
C    21.19999886  14.93000031  47.74000168
C    19.84000015  15.14000034  47.51999664
C    15.80999947  16.05999947  46.68000031
C    15.10000038  16.00000000  47.88000107
C    13.69999981  16.25000000  47.97000122
C    23.61999893  14.72000027  47.22999954
H    23.90643883  15.40029430  48.03202820
H    19.00000000  15.06000042  49.61999893
H    17.86000061  15.95000076  44.81999969
H    20.22999954  15.80000019  44.20000076
H    22.59000015  15.06999969  44.65999985
H    21.51000023  14.88999939  48.77999878
H    13.15000057  16.39000130  48.89999771
H    24.30000114  14.82999992  46.38000107
H    23.75000000  13.68999958  47.56999969
S    16.15999985  13.00000000  52.09000015
C    18.76000023  12.30000019  51.26999664
C    17.43000031  12.25000000  51.03000259
C    16.90999985  11.97000027  49.73999786
C    17.79999924  11.57999992  48.73000336
C    19.22999954  11.72999954  48.90999603
C    20.12000084  11.23000050  47.95999908
C    21.47999954  11.21000099  48.20000076
C    21.98999786  11.63000011  49.45000076
C    21.07999992  12.03999996  50.43000031
C    19.70000076  12.10000038  50.19000244
C    15.53999996  12.35999966  49.54999924
C    15.00000000  12.93000031  50.75000000
C    13.66000080  13.23999977  50.84000015
C    23.44000053  11.35000038  49.85000229
H    23.64312172  11.51810074  50.90763474
H    19.10000038  12.72999954  52.21000290
H    17.51000023  10.93000031  47.90999985
H    19.73999977  10.73999977  47.06999969
H    22.13000107  10.90000057  47.37999725
H    21.25000000  12.18999958  51.49000168
H    13.23999977  13.45999908  51.81999969
H    23.74000168  10.31999969  49.59999847
H    24.18000031  12.02999973  49.40000153
S    12.20999908  12.43000031  47.23999786
C     9.55000019  13.09999943  48.08000183
C    10.90999985  12.97999954  48.30999756
C    11.39000034  13.30999947  49.61000061
C    10.53999996  13.66000080  50.61999893
C     9.15000057  13.78000069  50.40000153
C     8.26000023  14.14000034  51.40999603
C     6.94000006  14.28999996  51.11999893
C     6.43000031  13.96999931  49.85000229
C     7.26999998  13.60000038  48.85000229
C     8.67999935  13.50999928  49.06000137
C    12.82999992  13.07000065  49.72999954
C    13.34000015  12.46000099  48.56999969
C    14.72000027  12.18000031  48.40000153
C     4.97000027  14.26000023  49.54999924
H     4.80850649  14.00020599  48.50380325
H     9.19000053  12.86999893  47.08000183
H    10.93999958  13.71000099  51.63000107
H     8.73000050  14.34000015  52.36000061
H     6.30999994  14.73000050  51.88000107
H     6.86999989  13.31999969  47.88000107
H    15.06999969  11.82000065  47.43000031
H     4.59999990  15.26999950  49.77000427
H     4.40000010  13.53000069  50.13000107
