96

S    12.27000046  17.04000092  44.13000107
C     9.61999989  17.50000000  44.86999893
C    10.86999989  17.07999992  45.24000168
C    11.25000000  16.69000053  46.56000137
C    10.18000031  16.60000038  47.48000336
C     8.84000015  16.95000076  47.16999817
C     7.71000004  17.07999992  48.15000153
C     6.56000042  17.67000008  47.76000214
C     6.30999994  18.02999878  46.40999603
C     7.30999994  18.07999992  45.52999878
C     8.60000038  17.46999931  45.83000183
C    12.71999931  16.70999908  46.77999878
C    13.36999989  16.72000122  45.54999924
C    14.73000050  16.64999962  45.45999908
C     4.92000008  18.38999939  45.98999786
H     4.60175467  17.77472687  45.14841843
H     9.27999973  17.88999939  43.90999603
H    10.25000000  16.21999931  48.50000000
H     7.92999983  16.76000023  49.16999817
H     5.78000021  17.84000015  48.50000000
H     7.17000008  18.36000061  44.48999786
H    15.24000072  16.75000000  44.50000000
H     4.18000031  18.25000000  46.79000092
H     4.92999983  19.40999985  45.58000183
S    15.93000031  15.76000023  49.10999680
C    18.59000015  15.21000004  48.22999954
C    17.35999870  15.73999977  47.98999786
C    16.97999954  16.29999924  46.72000122
C    17.95999908  16.39000130  45.79999924
C    19.23999977  15.84000015  46.00999832
C    20.36000061  16.06999969  45.13999939
C    21.59000015  15.72999954  45.56999969
C    21.86000061  14.98999977  46.73999786
C    20.82999992  14.73999977  47.54000092
C    19.51000023  15.15999985  47.22999954
C    15.57000065  16.48999977  46.60999680
C    14.84000015  16.31000137  47.84000015
C    13.45999908  16.46000099  47.95999908
C    23.29000092  14.68000031  47.19999695
H    23.71327782  15.26382828  48.01736069
H    18.81000137  14.85000038  49.23999786
H    17.73999977  16.97000122  44.89999771
H    20.22000122  16.57999992  44.19000244
H    22.39000130  16.09000015  44.93000031
H    21.07999992  14.44000053  48.55999756
H    13.03999996  16.21999931  48.93000031
H    23.85000038  14.70000076  46.25999832
H    23.16999817  13.66000080  47.57999802
S    11.68000031  17.17000008  50.77999878
C     9.15000057  17.53999901  51.62000275
C    10.36999893  16.97999954  51.90000153
C    10.76000023  16.53000069  53.16999817
C     9.84000015  16.27000046  54.13999939
C     8.47999954  16.79000092  53.93000031
C     7.35000038  16.69000053  54.78000259
C     6.11999989  17.25000000  54.51000214
C     5.91000032  17.97000122  53.30999756
C     7.00999975  18.20999908  52.47000122
C     8.19999981  17.48999977  52.67000198
C    12.18999958  16.56999969  53.27999878
C    12.86999893  16.97000122  52.11999893
C    14.28999996  16.92000008  52.02000046
C     4.53999996  18.38000107  52.84999847
H     4.29770708  17.68340874  52.04740524
H     9.00000000  18.30999947  50.87999725
H     9.96999931  15.67999935  55.05000305
H     7.48000050  16.11999893  55.70000076
H     5.26000023  17.04000092  55.13000107
H     7.00000000  18.71000099  51.50000000
H    14.85000038  17.21999931  51.13999939
H     3.77999997  18.29000092  53.62999725
H     4.53000021  19.44000053  52.56999969
S    15.25000000  15.71000004  55.63999939
C    18.00000000  15.51000023  54.86000061
C    16.72999954  15.85000038  54.59000015
C    16.38000107  16.28000069  53.27999878
C    17.42000008  16.44000053  52.35000229
C    18.78000069  16.13000107  52.63000107
C    19.85999870  16.25000000  51.73999786
C    21.07000160  15.77000046  52.08000183
C    21.31000137  15.21000004  53.34000015
C    20.34000015  15.14999962  54.25000000
C    19.04000092  15.57000065  53.90999603
C    14.93000031  16.46000099  53.20000076
C    14.17000008  16.18000031  54.40000153
C    12.81999969  16.13999939  54.43000031
C    22.70000076  14.80000019  53.76999664
H    22.90862083  15.33234119  54.69800186
H    18.22000122  14.96000099  55.77000046
H    17.15999985  16.87999916  51.38999939
H    19.47999954  16.62999916  50.79999924
H    21.87000084  15.80999947  51.36000061
H    20.43999863  14.78999996  55.26000214
H    12.38999939  15.72999954  55.34000015
H    23.39999962  14.98000050  52.95000076
H    22.75000000  13.71000099  53.77999878
