96

S    12.23999977  16.65999985  44.18000031
C     9.59999943  16.72000122  44.91000366
C    10.88000107  16.42000008  45.27000046
C    11.31000042  16.06999969  46.60999680
C    10.31999969  16.01000023  47.58999634
C     8.97000027  16.34000015  47.25999832
C     7.96000004  16.51000023  48.22999954
C     6.67000008  16.90999985  48.00000000
C     6.37000036  17.28999901  46.65000153
C     7.32999992  17.22999954  45.61000061
C     8.60999966  16.64999962  45.90999985
C    12.74000072  15.98999977  46.77999878
C    13.40999985  16.28999901  45.52999878
C    14.78000069  16.28000069  45.43000031
C     4.92000008  17.76000023  46.32999802
H     4.55562019  17.24379539  45.44182205
H     9.36999989  17.20999908  43.96999741
H    10.59999943  15.88000107  48.62999725
H     8.34000015  16.36000061  49.22999954
H     5.93999958  17.11000061  48.77999878
H     7.11999989  17.53000069  44.58000183
H    15.19999981  16.64999962  44.50000000
H     4.28000021  17.45000076  47.16999817
H     4.82999992  18.85000038  46.19999695
S    15.97000027  15.48999977  49.08000183
C    18.55999947  14.85999966  48.36000061
C    17.32999992  15.29999924  48.01000214
C    16.94000053  15.65999985  46.72000122
C    17.97999954  15.65000057  45.77999878
C    19.30999947  15.40999985  46.07999802
C    20.39999962  15.39999962  45.12000275
C    21.68999863  15.08999920  45.48999786
C    22.01000023  14.63999939  46.77999878
C    21.01000023  14.67000008  47.71999741
C    19.63000107  15.00000000  47.43000031
C    15.51000023  15.93999958  46.58000183
C    14.80999947  15.78999996  47.81999969
C    13.45999908  15.73999977  47.95999908
C    23.44000053  14.30999947  47.18999863
H    23.74639893  14.83525848  48.09461212
H    18.71999931  14.46000004  49.36000061
H    17.75000000  15.84000015  44.72999954
H    20.15000153  15.70000076  44.10999680
H    22.40999985  15.10000038  44.68000031
H    21.28999901  14.37999916  48.73000336
H    12.94000053  15.36999893  48.83999634
H    23.94000053  14.56999969  46.25000000
H    23.59999847  13.22999954  47.21000290
S    11.87000084  16.97000122  50.80999756
C     9.19000053  17.26000023  51.59000015
C    10.48999977  16.80999947  51.84999847
C    10.77999973  16.21999931  53.11000061
C     9.75000000  16.11999893  54.05000305
C     8.46000004  16.68000031  53.88000107
C     7.31999969  16.55999947  54.77000427
C     6.00000000  16.98999977  54.38999939
C     5.80999947  17.56000137  53.11000061
C     6.88000011  17.79000092  52.25999832
C     8.22000027  17.28999901  52.57999802
C    12.20000076  16.05999947  53.27000046
C    12.89999962  16.38000107  52.08000183
C    14.32000065  16.35000038  52.08000183
C     4.46000004  18.00000000  52.65999603
H     4.01774263  17.41274071  51.85523987
H     8.90999985  17.68000031  50.61999893
H    10.03000069  15.82999992  55.06000137
H     7.57000017  16.14999962  55.73999786
H     5.18000031  16.77999878  55.07999802
H     6.84999990  18.32999992  51.31000137
H    14.86999989  16.45000076  51.14999771
H     3.77999997  17.85000038  53.50999832
H     4.67999983  18.97999954  52.22000122
S    15.43000031  15.27999973  55.61999893
C    18.05999947  14.68999958  54.79999924
C    16.82999992  15.22999954  54.56999969
C    16.47999954  15.77999973  53.31999969
C    17.42000008  15.93000031  52.36999893
C    18.73999977  15.44000053  52.60000229
C    19.78000069  15.72000027  51.65999985
C    21.05999947  15.38000011  51.90000153
C    21.35999870  14.77000046  53.13000107
C    20.36999893  14.50000000  54.05000305
C    19.04000092  14.77000046  53.77999878
C    15.01999950  15.88999939  53.20000076
C    14.32999992  15.62999916  54.34000015
C    12.94000053  15.67000008  54.40000153
C    22.79000092  14.46000004  53.47000122
H    23.02907753  14.96628094  54.40521240
H    18.34000015  14.25000000  55.76000214
H    17.13999939  16.39999962  51.43000031
H    19.43000031  16.21000099  50.76000214
H    21.83000183  15.47999954  51.12999725
H    20.53999901  14.09000015  55.04000092
H    12.38999939  15.36999893  55.28999710
H    23.43000031  14.77000046  52.63999939
H    22.85000038  13.38000107  53.66000366
