96

S    12.28000069  16.67000008  44.31000137
C     9.59000015  17.10000038  45.06000137
C    10.77999973  16.48999977  45.31999969
C    11.03999996  15.95999908  46.65000153
C     9.92999935  15.97000027  47.54000092
C     8.69000053  16.47999954  47.21000290
C     7.57000017  16.42000008  48.13000107
C     6.34999990  16.86000061  47.74000168
C     6.21999979  17.61000061  46.50000000
C     7.26999998  17.70000076  45.61000061
C     8.53999996  17.11000061  45.96000290
C    12.46999931  15.76000023  46.84000015
C    13.20000076  16.23999977  45.72999954
C    14.56999969  16.23999977  45.68000031
C     4.80999994  17.88999939  45.93000031
H     4.68583298  17.28296089  45.03323746
H     9.36999989  17.52000046  44.09000015
H    10.05000019  15.44999981  48.48999786
H     7.63999987  15.90000057  49.08000183
H     5.56999969  16.73999977  48.48999786
H     7.09999990  18.11000061  44.61999893
H    15.11000061  16.53000069  44.79000092
H     4.05000019  17.71000099  46.70000076
H     4.77999973  18.95000076  45.65999985
S    15.62999916  14.93999958  49.31000137
C    18.22999954  14.65999985  48.47000122
C    17.05000114  15.14999962  48.25000000
C    16.63999939  15.76000023  47.02999878
C    17.67000008  16.07999992  46.14999771
C    18.96999931  15.50000000  46.29000092
C    19.98999977  15.52999973  45.34000015
C    21.22999954  14.92000008  45.52000046
C    21.50000000  14.19999981  46.72000122
C    20.45999908  14.02999973  47.65999603
C    19.19999886  14.73000050  47.50999832
C    15.19999981  15.88999939  46.88999939
C    14.47000027  15.48999977  48.04000092
C    13.10999966  15.39999962  47.98999786
C    22.96999931  13.86999989  47.09999847
H    23.35543823  14.58377647  47.82804871
H    18.35000038  14.00000000  49.31999969
H    17.40999985  16.50000000  45.18000031
H    19.77000046  16.10999870  44.45000076
H    22.11000061  15.19000053  44.94999695
H    20.65999985  13.75000000  48.68999863
H    12.61000061  15.17000008  48.93000031
H    23.67000198  13.94999981  46.26999664
H    22.98999977  12.86000061  47.51999664
S    15.48999977  12.25999928  52.25999832
C    18.15000153  11.85999966  51.62000275
C    16.80999947  11.80999947  51.22000122
C    16.35000038  11.49000072  49.91000366
C    17.30999947  11.18999958  48.97999573
C    18.71999931  11.19999981  49.29000092
C    19.70000076  10.82999992  48.27999878
C    21.02000046  10.76000023  48.54999924
C    21.48999977  11.17000008  49.88999939
C    20.56999969  11.51000023  50.87999725
C    19.18000031  11.56999969  50.61999893
C    14.93000031  11.78999996  49.72000122
C    14.27999973  12.18000031  50.90999985
C    12.94000053  12.60000038  51.00999832
C    22.93999863  10.88000107  50.17000198
H    23.15034294  10.97499466  51.23528671
H    18.42000008  11.97999954  52.65999603
H    16.97000122  10.72999954  48.06000137
H    19.40999985  10.44999981  47.29999924
H    21.65999985  10.25000000  47.84000015
H    20.81000137  11.63000011  51.93000031
H    12.51999950  12.71000004  52.01000214
H    23.19999886   9.89999962  49.77000427
H    23.57999992  11.61999893  49.66999817
S    11.68000031  12.15999985  47.29000092
C     9.02000046  12.30000019  48.13999939
C    10.34999943  12.32999992  48.43000031
C    10.77999973  12.64999962  49.73999786
C     9.89999962  13.10999966  50.68999863
C     8.56000042  13.21000004  50.41999817
C     7.63000011  13.76000023  51.31999969
C     6.32000017  13.96999931  51.03000259
C     5.88000011  13.71000099  49.72999954
C     6.71999979  13.12000084  48.83999634
C     8.10000038  12.81999969  49.09999847
C    12.17000008  12.53999901  49.87999725
C    12.79999924  12.23000050  48.66000366
C    14.14999962  11.96000004  48.55999756
C     4.48000002  14.14999962  49.22000122
H     4.41680956  13.82702637  48.18087006
H     8.64000034  11.95000076  47.18999863
H    10.26999950  13.47000027  51.65000153
H     8.06999969  14.13000011  52.23999786
H     5.73999977  14.57999992  51.72000122
H     6.44999981  12.77999973  47.84999847
H    14.56999969  11.56999969  47.63999939
H     4.40000010  15.24000072  49.36000061
H     3.74000025  13.63000011  49.84000397
