96

S    12.41000080  16.68000031  44.38000107
C     9.90999985  17.28000069  45.34000015
C    11.10000038  16.64999962  45.50000000
C    11.50000000  16.13999939  46.79000092
C    10.52999973  16.05999947  47.80000305
C     9.22000027  16.61000061  47.60000229
C     8.18000031  16.64999962  48.60000229
C     6.91999960  17.17000008  48.30999756
C     6.63999987  17.68000031  47.02999878
C     7.69000006  17.68000031  46.16000366
C     8.89999962  17.13999939  46.32999802
C    12.93000031  15.95999908  46.88999939
C    13.59000015  16.10999870  45.66999817
C    14.93000031  16.06999969  45.59999847
C     5.25000000  17.87999916  46.56000137
H     4.97243786  17.21531296  45.74192429
H     9.85000038  18.00000000  44.52000046
H    10.75000000  15.51000023  48.70999908
H     8.32999992  16.22999954  49.59000015
H     6.06999969  17.07999992  48.96999741
H     7.53999996  18.09000015  45.15999603
H    15.36000061  16.55999947  44.73999786
H     4.65000010  17.77000046  47.47000122
H     5.07999992  18.93000031  46.26999664
S    16.22999954  15.26000023  49.23999786
C    18.81999969  14.75000000  48.29000092
C    17.56999969  15.17000008  48.09000015
C    17.14999962  15.62000084  46.77999878
C    18.12000084  15.77000046  45.80999756
C    19.51000023  15.53999996  46.07999802
C    20.59999847  15.59000015  45.08999634
C    21.90999985  15.14999962  45.40000153
C    22.22999954  14.82999992  46.72000122
C    21.18999863  14.78999996  47.63999939
C    19.82999992  15.03999901  47.37999725
C    15.70000076  15.71000004  46.66999817
C    15.06999969  15.55999947  47.90999985
C    13.66000080  15.62999916  48.01000214
C    23.61999893  14.35999966  47.11000061
H    23.86241341  14.57389450  48.15095520
H    19.17000008  14.45000076  49.27999878
H    17.67000008  15.88999939  44.82999802
H    20.38000107  16.00000000  44.10999680
H    22.72999954  15.19000053  44.68999863
H    21.31999969  14.32999992  48.61999893
H    13.17999935  15.55999947  48.97999573
H    24.34999847  14.89999962  46.50000000
H    23.68000031  13.27000046  47.00000000
S    12.18000031  17.18000031  51.09000397
C     9.53999996  17.29999924  51.81000137
C    10.82999992  17.01000023  52.18000031
C    11.23999977  16.55999947  53.48999786
C    10.21999931  16.51000023  54.45999908
C     8.90999985  17.01000023  54.10999680
C     7.78999996  17.00000000  55.07999802
C     6.51000023  17.38000107  54.75000000
C     6.10000038  17.81999969  53.47000122
C     7.09000015  17.75000000  52.47000122
C     8.51000023  17.38999939  52.78999710
C    12.71999931  16.46999931  53.56999969
C    13.32999992  16.72000122  52.35000229
C    14.70000076  16.69000053  52.29999924
C     4.65999985  18.22999954  53.11000061
H     4.25694942  17.60774612  52.31097031
H     9.39000034  17.60000038  50.77000046
H    10.42000008  16.10999870  55.45000076
H     7.92999983  16.62999916  56.09000397
H     5.77000046  17.43000031  55.54000092
H     6.84999990  17.97999954  51.44000244
H    15.25000000  16.95999908  51.40999603
H     4.11999989  18.11000061  54.05000305
H     4.69999981  19.29999924  52.87000275
S    15.67999935  15.47999954  55.83000183
C    18.44000053  15.26999950  55.21999741
C    17.13999939  15.59999943  54.86999893
C    16.80999947  15.97000027  53.52000427
C    17.79999924  16.03000069  52.56000137
C    19.14999962  15.75000000  52.93000031
C    20.15000153  15.80000019  51.98999786
C    21.47999954  15.50000000  52.32999802
C    21.84000015  15.26000023  53.63999939
C    20.86999893  15.17000008  54.65000153
C    19.48999977  15.36000061  54.29000092
C    15.40999985  16.14999962  53.36999893
C    14.68999958  15.88999939  54.54000092
C    13.42000008  16.20000076  54.75999832
C    23.23999786  14.88999939  54.02999878
H    23.54528618  15.23788261  55.01684952
H    18.71000099  15.03000069  56.25000000
H    17.53000069  16.38000107  51.56000137
H    19.80999947  16.10999870  51.00000000
H    22.18000031  15.54999924  51.49000168
H    21.09999847  15.01999950  55.70999908
H    12.90999985  16.10999870  55.70999908
H    23.97999954  15.25000000  53.29999924
H    23.22999954  13.80000019  54.12000275
