96

S    12.28000069  16.36000061  43.77999878
C     9.73999977  17.02000046  44.69999695
C    10.92000008  16.39000130  44.85000229
C    11.23000050  15.77999973  46.06999969
C    10.26999950  15.57000065  47.06999969
C     8.98999977  16.15999985  46.86999893
C     7.90999985  16.09000015  47.83000183
C     6.63000011  16.57999992  47.50999832
C     6.34999990  17.20000076  46.30000305
C     7.42000008  17.35000038  45.43000031
C     8.73000050  16.88999939  45.68999863
C    12.63000011  15.62999916  46.27999878
C    13.35000038  15.88999939  45.06999969
C    14.70000076  15.85999966  45.01999664
C     5.03999996  17.89999962  45.91999817
H     4.49885750  17.18569183  45.29949188
H     9.57999992  17.35999870  43.68000031
H    10.48999977  15.21999931  48.08000183
H     8.05999947  15.55999947  48.76999664
H     5.84999990  16.60000038  48.27000046
H     7.17999983  17.78000069  44.47000122
H    15.10000038  16.38000107  44.15000153
H     4.42000008  18.26000023  46.75000000
H     5.28999996  18.79999924  45.34000015
S    15.84000015  14.96000099  48.81999969
C    18.51000023  14.75999928  48.01000214
C    17.23999977  15.10000038  47.75000000
C    16.87999916  15.64000034  46.47999573
C    17.82999992  15.93999958  45.52000046
C    19.27999878  15.65999985  45.83000183
C    20.40999985  15.78999996  44.91000366
C    21.61000061  15.14999962  45.15999603
C    21.88999939  14.65999985  46.46999741
C    20.84000015  14.65000057  47.38999939
C    19.52000046  15.03000069  47.08000183
C    15.42000008  15.59000015  46.19999695
C    14.73000050  15.29999924  47.38999939
C    13.28999996  15.26999950  47.43999863
C    23.29999924  14.27999973  46.84999847
H    23.52265930  14.72531796  47.81964493
H    18.78000069  14.11999893  48.83999634
H    17.56000137  16.28000069  44.52999878
H    20.22000122  16.39000130  44.02999878
H    22.36999893  15.08999920  44.38000107
H    21.04999924  14.40999985  48.43000031
H    12.72999954  15.14999962  48.36000061
H    24.06999969  14.39000034  46.06999969
H    23.25000000  13.19000053  46.95000076
S    11.73999977  16.40999985  50.81999969
C     9.15000057  17.02000046  51.56999969
C    10.36999893  16.51000023  51.90000153
C    10.71000004  16.03999901  53.26000214
C     9.72999954  16.02000046  54.20999908
C     8.43999958  16.52000046  53.89999771
C     7.42999983  16.52000046  54.92000198
C     6.23000050  17.07999992  54.56999969
C     5.82999992  17.45000076  53.25000000
C     6.80999994  17.47999954  52.25999832
C     8.14000034  17.02000046  52.57999802
C    12.18999958  16.05999947  53.36000061
C    12.86000061  16.03000069  52.11999893
C    14.18000031  15.98999977  51.95999908
C     4.48999977  18.04000092  52.90999985
H     4.15768099  17.61576271  51.96253586
H     8.82999992  17.34000015  50.58000183
H     9.81000042  15.51000023  55.17000198
H     7.63999987  16.21000099  55.93999863
H     5.55999994  17.11000061  55.43000031
H     6.72999954  17.82999992  51.23000336
H    14.73000050  16.03000069  51.03000259
H     3.91000009  17.61000061  53.75000000
H     4.44000006  19.12999916  53.00000000
S    15.38000011  15.48999977  55.75000000
C    17.90999985  14.75999928  54.79000092
C    16.70999908  15.26000023  54.54999924
C    16.31000137  15.48999977  53.18999863
C    17.21999931  15.48999977  52.11999893
C    18.59000015  15.14999962  52.41000366
C    19.68000031  15.29000092  51.53999710
C    20.98999977  15.06999969  51.90000153
C    21.28000069  14.78999996  53.29999924
C    20.20999908  14.47000027  54.15999985
C    18.89999962  14.73999977  53.76999664
C    14.86999989  15.76000023  53.08000183
C    14.27000046  15.78999996  54.38999939
C    12.93000031  16.00000000  54.54000092
C    22.59000015  14.32999992  53.79000092
H    22.85993004  14.86256599  54.70192719
H    18.15000153  14.30999947  55.75000000
H    17.05000114  15.80000019  51.09000397
H    19.47000122  15.84000015  50.61999893
H    21.65999985  15.05000019  51.04999924
H    20.36999893  13.97999954  55.12000275
H    12.46000099  15.97000027  55.52000046
H    23.36999893  14.26000023  53.02000046
H    22.50999832  13.27999973  54.06999969
