96

S    12.02999973  16.45000076  44.15999985
C     9.40999985  17.00000000  44.85000229
C    10.59999943  16.46000099  45.17000198
C    10.88000107  16.01000023  46.49000168
C     9.84000015  16.03000069  47.42000198
C     8.60000038  16.54999924  47.08000183
C     7.55999994  16.68000031  48.04999924
C     6.38000011  17.29999924  47.80000305
C     6.14000034  17.71999931  46.42000198
C     7.13999987  17.68000031  45.47999954
C     8.34999943  17.05999947  45.79000092
C    12.28999996  15.92000008  46.72000122
C    13.02999973  16.21000099  45.56000137
C    14.39000034  16.40999985  45.63999939
C     4.77999973  18.12999916  45.89000320
H     4.44146681  17.62565422  44.98494339
H     9.15999985  17.53999901  43.94000244
H    10.06999969  15.72000027  48.43999863
H     7.73999977  16.36000061  49.06999969
H     5.59000015  17.22999954  48.54000092
H     7.02000046  18.20000076  44.52999878
H    15.01999950  16.84000015  44.86000061
H     3.91999984  18.00000000  46.56000137
H     4.86999989  19.17000008  45.56999969
S    15.43000031  15.44999981  49.26000214
C    18.05999947  15.06000042  48.55999756
C    16.80999947  15.62999916  48.27000046
C    16.53000069  16.23999977  47.02000046
C    17.51000023  16.50000000  46.11999893
C    18.81999969  15.98999977  46.37000275
C    19.88999939  16.18999863  45.40999985
C    21.11000061  15.59000015  45.63999939
C    21.44000053  15.05000019  46.90999985
C    20.40999985  14.82999992  47.83000183
C    19.11000061  15.27999973  47.58999634
C    15.11000061  16.18000031  46.79999924
C    14.37999916  15.77000046  47.88999939
C    12.98999977  15.59000015  47.88000107
C    22.84000015  14.55000019  47.22000122
H    23.14233017  15.03513527  48.14808655
H    18.27999878  14.52999973  49.47999954
H    17.31999969  16.77999878  45.08999634
H    19.80999947  16.75000000  44.47999954
H    21.87999916  15.65000057  44.86999893
H    20.65000153  14.32000065  48.75999832
H    12.51999950  15.29999924  48.81999969
H    23.52999878  14.82999992  46.40999603
H    22.95000076  13.45999908  47.29999924
S    12.03999996  17.14999962  51.14999771
C     9.40999985  17.65999985  51.90000153
C    10.69000053  17.21999931  52.29000092
C    10.93999958  16.79000092  53.59000397
C     9.82999992  16.57999992  54.40000153
C     8.47000027  16.87999916  53.99000168
C     7.35000038  17.00000000  54.92000198
C     6.17000008  17.47999954  54.54000092
C     5.98000002  17.94999886  53.22999954
C     7.07000017  18.04000092  52.38999939
C     8.30999947  17.43000031  52.68000031
C    12.35999966  16.39999962  53.70999908
C    13.00000000  16.51000023  52.48000336
C    14.35999966  16.29999924  52.31999969
C     4.67999983  18.46999931  52.69000244
H     4.13702869  17.70690536  52.13235474
H     9.31999969  18.36000061  51.07999802
H    10.03999901  16.31000137  55.44000244
H     7.64999962  16.77999878  55.93999863
H     5.36999989  17.46999931  55.27000046
H     7.02000046  18.48999977  51.40999603
H    14.93999958  16.51000023  51.42000198
H     4.11999989  18.76000023  53.59000397
H     4.86000013  19.43000031  52.18999863
S    15.54999924  15.76000023  56.07999802
C    18.27999878  15.39999962  55.31999969
C    16.94000053  15.65999985  54.97000122
C    16.60000038  16.00000000  53.61999893
C    17.61999893  16.06999969  52.63000107
C    18.96999931  15.81999969  52.91999817
C    20.03000069  15.88999939  51.97999954
C    21.24000168  15.43000031  52.29999924
C    21.61999893  15.00000000  53.61000061
C    20.59999847  14.94999981  54.61999893
C    19.31999969  15.40999985  54.29000092
C    15.13000011  16.06999969  53.47999954
C    14.42000008  15.93999958  54.72999954
C    13.07000065  15.98999977  54.81999969
C    23.02000046  14.67000008  53.97999573
H    23.30994987  15.09802055  54.93959427
H    18.63999939  15.03000069  56.27999878
H    17.31999969  16.18000031  51.59000015
H    19.93999863  16.27000046  50.96000290
H    21.94999886  15.39000034  51.46999741
H    20.79000092  14.44000053  55.56000137
H    12.56999969  15.86999989  55.77000046
H    23.65999985  15.03999901  53.18000031
H    23.21000099  13.59000015  53.88999939
