96

S    12.43000031  16.60000038  44.41999817
C     9.77000046  17.02999878  45.21999741
C    11.05000019  16.69000053  45.54999924
C    11.33999920  16.28000069  46.91999817
C    10.40999985  16.28999901  47.87000275
C     9.03999996  16.65999985  47.56000137
C     7.96999979  16.64999962  48.46000290
C     6.71000004  17.15999985  48.11000061
C     6.48000002  17.56999969  46.79000092
C     7.46999979  17.63000107  45.86000061
C     8.76999950  17.09000015  46.18999863
C    12.76000023  15.93000031  47.02000046
C    13.47000027  16.07999992  45.76000214
C    14.85000038  15.98000050  45.65000153
C     5.07999992  17.87999916  46.25999832
H     4.72249508  17.30249214  45.40748596
H     9.55000019  17.38999939  44.22000122
H    10.70000076  15.98999977  48.87000275
H     8.05000019  16.26000023  49.47000122
H     6.01000023  17.09000015  48.94000244
H     7.35000038  18.00000000  44.84000397
H    15.38000011  16.01000023  44.71000290
H     4.41000032  17.68000031  47.11000061
H     5.00000000  18.96000099  46.09000397
S    15.88999939  15.44999981  49.52000046
C    18.60000038  14.98999977  48.85000229
C    17.30999947  15.36000061  48.43999863
C    16.94000053  15.64000034  47.11000061
C    17.95999908  15.60999966  46.07999802
C    19.27999878  15.34000015  46.49000168
C    20.29999924  15.17000008  45.47000122
C    21.59000015  15.03000069  45.84999847
C    21.97999954  14.63000107  47.15000153
C    21.01000023  14.65999985  48.13000107
C    19.63999939  15.07999992  47.87000275
C    15.52999973  15.80999947  46.86999893
C    14.85000038  15.72000027  48.06999969
C    13.48000050  15.82999992  48.22999954
C    23.39999962  14.34000015  47.42000198
H    23.75445938  14.72281456  48.37703323
H    18.78999901  14.52999973  49.81999969
H    17.76000023  15.39000034  45.02999878
H    19.98999977  15.40999985  44.45999908
H    22.34999847  15.15999985  45.08999634
H    21.18999863  14.35999966  49.15999985
H    13.07999992  15.90000057  49.22999954
H    24.07999992  14.68999958  46.63999939
H    23.38000107  13.25000000  47.32999802
S    11.97000027  16.97000122  51.19999695
C     9.22000027  17.17000008  51.79000092
C    10.51000023  16.84000015  52.19999695
C    10.69000053  16.46999931  53.54000092
C     9.56999969  16.34000015  54.38000107
C     8.30000019  16.79000092  54.01000214
C     7.23999977  16.82999992  55.00000000
C     5.98999977  17.19000053  54.58000183
C     5.77000046  17.59000015  53.27000046
C     6.78999996  17.54999924  52.34000397
C     8.14000034  17.26000023  52.70000076
C    12.13999939  16.13999939  53.69999695
C    12.93000031  16.47999954  52.56999969
C    14.32999992  16.59000015  52.51999664
C     4.36999989  18.01000023  52.84999847
H     4.09478521  17.55626678  51.89790344
H     9.00000000  17.71999931  50.87999725
H     9.63000011  16.11999893  55.44000244
H     7.32999992  16.48999977  56.03000259
H     5.21000004  17.38000107  55.31999969
H     6.75000000  17.67000008  51.25999832
H    14.85000038  17.02999878  51.68000031
H     3.72000003  17.90999985  53.73000336
H     4.34999990  19.09000015  52.64999771
S    15.29000092  15.93000031  56.32999802
C    18.04999924  15.54999924  55.61000061
C    16.76000023  15.92000008  55.25000000
C    16.44000053  16.29999924  53.86000061
C    17.45000076  16.45000076  52.93000031
C    18.81000137  16.04999924  53.31999969
C    19.78000069  15.98999977  52.36000061
C    20.98999977  15.39999962  52.58999634
C    21.30000114  14.80999947  53.89999771
C    20.31999969  14.91000080  54.84000397
C    19.10000038  15.53999996  54.61999893
C    15.01000023  16.26000023  53.68000031
C    14.28999996  16.00000000  54.84000397
C    12.88000011  15.86999989  54.84000397
C    22.72999954  14.47000027  54.22000122
H    23.01234436  14.87122631  55.19334412
H    18.25000000  15.06999969  56.56000137
H    17.26000023  16.77999878  51.90999985
H    19.54000092  16.52000046  51.44000244
H    21.77999878  15.53999996  51.86000061
H    20.46999931  14.42999935  55.79999924
H    12.39999962  15.72000027  55.79999924
H    23.28000069  15.00000000  53.43000031
H    22.89999962  13.38999939  54.12000275
