96

S    12.48000050  16.55999947  44.38999939
C     9.76000023  17.01000023  45.00000000
C    11.02000046  16.61000061  45.43000031
C    11.33999920  16.44000053  46.86999893
C    10.32999992  16.70999908  47.77000046
C     9.07999992  17.17000008  47.34000397
C     8.01000023  17.43000031  48.27999878
C     6.77999973  17.80999947  47.81999969
C     6.56000042  18.11000061  46.45000076
C     7.59000015  17.94000053  45.61999893
C     8.80000019  17.35000038  45.94999695
C    12.76000023  16.46000099  47.04999924
C    13.42000008  16.52000046  45.81999969
C    14.81999969  16.54999924  45.79999924
C     5.15999985  18.51000023  45.89000320
H     4.58284330  17.66920471  45.50522995
H     9.63999939  17.35000038  43.96999741
H    10.57000065  16.34000015  48.76999664
H     8.17000008  17.23999977  49.34000015
H     5.93999958  17.70000076  48.48999786
H     7.62000036  18.07999992  44.54000092
H    15.39000034  16.82999992  44.92000198
H     4.61000013  19.05999947  46.66999817
H     5.28999996  19.22000122  45.06000137
S    15.84000015  15.88000107  49.52000046
C    18.52000046  15.21999931  48.62999725
C    17.29999924  15.75000000  48.36999893
C    16.97000122  16.21999931  47.06999969
C    17.87999916  16.11999893  46.04000092
C    19.19000053  15.64000034  46.26999664
C    20.22999954  15.59000015  45.24000168
C    21.51000023  15.32999992  45.59000015
C    21.88999939  14.85999966  46.90999985
C    20.93000031  14.96999931  47.91999817
C    19.56999969  15.21000004  47.60000229
C    15.52999973  16.36999893  46.95000076
C    14.80999947  16.21999931  48.15999985
C    13.47000027  16.40999985  48.27000046
C    23.28000069  14.35999966  47.25999832
H    23.59898186  14.80379963  48.20307541
H    18.78999901  14.84000015  49.61999893
H    17.54999924  16.32999992  45.02999878
H    19.92000008  15.72999954  44.20999908
H    22.20000076  15.44999981  44.75999832
H    21.21999931  14.70000076  48.93000031
H    12.97999954  16.54999924  49.22999954
H    24.05999947  14.48999977  46.49000168
H    23.11000061  13.28999996  47.43999863
S    11.92000008  17.72999954  51.26999664
C     9.26000023  17.94000053  51.95000076
C    10.48999977  17.53000069  52.25000000
C    10.71000004  16.81999969  53.46000290
C     9.63000011  16.62999916  54.34000015
C     8.30999947  17.13999939  54.05000305
C     7.17000008  17.06999969  54.88999939
C     5.92999983  17.46999931  54.52000046
C     5.72000027  17.89999962  53.20000076
C     6.81999969  18.12999916  52.42000198
C     8.14000034  17.79000092  52.77000046
C    12.13000107  16.63999939  53.68000031
C    12.89000034  17.01000023  52.56000137
C    14.26000023  16.95999908  52.48000336
C     4.41000032  18.35000038  52.81999969
H     4.02755165  17.78715134  51.96850967
H     9.13999939  18.38999939  50.97000122
H     9.78999996  15.98000050  55.20000076
H     7.37999964  16.64999962  55.86999893
H     5.13000011  17.47999954  55.25000000
H     6.67000008  18.60999870  51.45000076
H    14.88999939  17.36999893  51.70000076
H     3.73000002  18.25000000  53.67000198
H     4.42999983  19.44000053  52.71999741
S    15.31000042  15.88000107  56.16000366
C    17.95999908  15.52000046  55.38000107
C    16.70999908  16.00000000  55.06999969
C    16.34000015  16.36999893  53.69999695
C    17.42000008  16.45000076  52.71999741
C    18.72999954  15.98000050  53.09000015
C    19.79999924  15.93999958  52.09000015
C    21.04000092  15.50000000  52.35000229
C    21.30000114  15.05000019  53.68000031
C    20.31999969  15.06999969  54.72000122
C    19.00000000  15.54999924  54.40999985
C    14.89999962  16.54000092  53.61000061
C    14.15999985  16.21000099  54.79999924
C    12.75000000  16.11999893  54.79999924
C    22.77000046  14.65000057  53.94000244
H    23.14945984  15.13486385  54.83945847
H    18.02000046  14.98999977  56.31999969
H    17.30999947  16.93000031  51.75000000
H    19.55999947  16.38000107  51.12999725
H    21.81999969  15.51000023  51.59999847
H    20.50000000  14.85999966  55.77000046
H    12.30000019  15.82999992  55.73999786
H    23.44000053  14.92000008  53.11999893
H    22.92000008  13.60000038  54.20999908
