96

S    12.43000031  16.39999962  44.45999908
C     9.77999973  16.59000015  45.22999573
C    11.05000019  16.39000130  45.52999878
C    11.46000004  16.21000099  46.86999893
C    10.55999947  16.17000008  47.91999817
C     9.22999954  16.54999924  47.60000229
C     8.21000004  16.60000038  48.50000000
C     6.91999960  17.01000023  48.18000031
C     6.60000038  17.27000046  46.81999969
C     7.57000017  17.30999947  45.91999817
C     8.84000015  16.88999939  46.25000000
C    12.88000011  15.95999908  46.93000031
C    13.57999992  16.03000069  45.72999954
C    15.00000000  15.90000057  45.45000076
C     5.19000006  17.61000061  46.39999771
H     4.80772448  16.84544945  45.72366333
H     9.36999989  16.55999947  44.22000122
H    10.85999966  15.80999947  48.90999603
H     8.42000008  16.23999977  49.51000214
H     6.15000010  17.02999878  48.95000076
H     7.37999964  17.61000061  44.89999771
H    15.44999981  16.13999939  44.48999786
H     4.55000019  17.48999977  47.28000259
H     4.96000004  18.60000038  46.00000000
S    16.25000000  15.51000023  49.09000015
C    18.96000099  15.26999950  48.20999908
C    17.64000130  15.40999985  47.95000076
C    17.19000053  15.57999992  46.60999680
C    18.07999992  15.59000015  45.58000183
C    19.43000031  15.47000027  45.89000320
C    20.42000008  15.50000000  44.79999924
C    21.76000214  15.36999893  45.02999878
C    22.18000031  15.19000053  46.40999603
C    21.22999954  15.18000031  47.48000336
C    19.89999962  15.31000042  47.19999695
C    15.77000046  15.72999954  46.63000107
C    15.07999992  15.73999977  47.90000153
C    13.71999931  15.78999996  48.02999878
C    23.68000031  15.03000069  46.70000076
H    23.91202164  15.11437130  47.76167297
H    19.22999954  15.05000019  49.23999786
H    17.75000000  15.71000004  44.54999924
H    20.13000107  15.59999943  43.75999832
H    22.44999886  15.22999954  44.20000076
H    21.42999840  14.89999962  48.50999832
H    13.35000038  15.65000057  49.05000305
H    24.18000031  15.78999996  46.09000397
H    23.98999977  14.06000042  46.30000305
S    12.15999985  17.17000008  50.98999786
C     9.46000004  17.50000000  51.86999893
C    10.73999977  17.09000015  52.09000015
C    11.03999996  16.52000046  53.36999893
C    10.11000061  16.28000069  54.29999924
C     8.78999996  16.80999947  54.12000275
C     7.73000002  16.69999886  55.06999969
C     6.54999971  17.28000069  54.87999725
C     6.15999985  17.67000008  53.59000397
C     7.09999990  17.77000046  52.60000229
C     8.43000031  17.40999985  52.84000015
C    12.50000000  16.52000046  53.54999924
C    13.26000023  16.84000015  52.36999893
C    14.61999989  16.70999908  52.29999924
C     4.69999981  18.04999924  53.25000000
H     4.47320461  17.78985214  52.21607971
H     9.35999966  18.15000153  51.00000000
H    10.31999969  15.81999969  55.26000214
H     7.94000053  16.13000107  55.97000122
H     5.80999947  17.14999962  55.65999985
H     6.86999989  18.15999985  51.60999680
H    15.24000072  16.86000061  51.40999603
H     4.00999975  17.45000076  53.86000061
H     4.34999990  19.06999969  53.40999985
S    15.59000015  15.65999985  56.02000427
C    18.26000023  15.29999924  55.25000000
C    17.02000046  15.62999916  54.93999863
C    16.70999908  16.13000107  53.61000061
C    17.71000099  16.32999992  52.63000107
C    19.02000046  16.00000000  52.97999954
C    20.05000114  16.22999954  51.95000076
C    21.28999901  15.73999977  52.29999924
C    21.57999992  15.14999962  53.56999969
C    20.65999985  15.11000061  54.59000015
C    19.32999992  15.44999981  54.27000046
C    15.31999969  16.35000038  53.50999832
C    14.55999947  16.18000031  54.64000320
C    13.21000004  16.20000076  54.71000290
C    22.95000076  14.61999989  53.95000076
H    23.43375969  15.26982689  54.67924881
H    18.39999962  15.01000023  56.29000092
H    17.45000076  16.63999939  51.62000275
H    19.71999931  16.65999985  51.00999832
H    22.03000069  15.70000076  51.50000000
H    20.96999931  14.94999981  55.61999893
H    12.63000011  15.88000107  55.56999969
H    23.57000160  14.59000015  53.04000092
H    22.78000069  13.60000038  54.31999969
