96

S    11.61999893  16.62999916  44.36999893
C     9.06999969  17.22999954  45.13999939
C    10.29000092  16.87999916  45.52000046
C    10.65000057  16.61999893  46.88000107
C     9.72999954  16.79000092  47.87000275
C     8.43000031  17.20999908  47.50000000
C     7.39000034  17.22999954  48.43000031
C     6.10000038  17.39999962  48.06000137
C     5.78999996  17.77000046  46.73999786
C     6.77999973  17.73999977  45.77999878
C     8.07999992  17.40999985  46.10000229
C    12.07999992  16.23999977  46.95999908
C    12.69999981  16.28000069  45.68999863
C    14.09999943  16.25000000  45.48999786
C     4.44999981  18.00000000  46.29000092
H     4.14589357  17.46250916  45.39182281
H     8.96000004  17.25000000  44.06000137
H     9.96999931  16.47999954  48.88999939
H     7.62000036  16.87999916  49.43000031
H     5.35000038  17.32999992  48.82999802
H     6.67000008  17.92000008  44.72000122
H    14.53999996  16.35000038  44.50000000
H     3.76999998  17.94000053  47.15000153
H     4.41000032  19.06999969  46.09000397
S    15.34999943  15.57999992  49.15000153
C    18.02000046  15.11000061  48.31999969
C    16.72999954  15.48999977  48.06000137
C    16.28000069  15.80000019  46.73999786
C    17.27000046  15.80000019  45.77999878
C    18.63999939  15.42000008  46.00999832
C    19.65999985  15.39000034  45.07999802
C    20.96999931  14.93000031  45.31000137
C    21.27000046  14.51000023  46.65999985
C    20.32999992  14.57999992  47.63999939
C    19.02000046  15.06000042  47.32999802
C    14.85999966  16.00000000  46.69000244
C    14.23999977  15.85999966  47.90999985
C    12.84000015  15.93000031  48.04999924
C    22.67000008  14.15999985  47.02999878
H    23.09071350  14.75185108  47.84290314
H    18.36000061  14.80999947  49.31000137
H    17.05999947  16.11999893  44.75999832
H    19.45999908  15.84000015  44.10999680
H    21.75000000  15.05000019  44.56999969
H    20.59999847  14.19999981  48.61999893
H    12.41000080  15.78999996  49.03999710
H    23.29999924  14.37999916  46.14999771
H    22.85000038  13.09000015  47.21000290
S    11.96000004  17.29999924  51.17000198
C     9.30000019  17.57999992  51.81999969
C    10.52999973  17.20000076  52.16999817
C    10.84000015  16.76000023  53.56999969
C     9.78999996  16.73999977  54.47999954
C     8.52999973  17.32999992  54.16999817
C     7.36999989  17.14999962  55.01999664
C     6.15999985  17.57999992  54.66999817
C     5.91000032  18.12000084  53.37999725
C     6.98999977  18.20999908  52.49000168
C     8.25000000  17.64000130  52.80000305
C    12.30000019  16.69999886  53.75999832
C    12.97999954  16.93000031  52.56000137
C    14.30999947  16.69999886  52.43000031
C     4.48999977  18.46999931  52.90000153
H     4.15390491  17.84786797  52.07048798
H     9.03999996  17.79999924  50.79000092
H     9.89999962  16.09000015  55.34000015
H     7.50000000  16.59000015  55.94999695
H     5.32999992  17.53000069  55.37000275
H     6.94000006  18.46999931  51.44000244
H    14.72000027  16.75000000  51.43000031
H     3.81999993  18.54999924  53.76999664
H     4.46999979  19.45000076  52.41000366
S    15.52000046  15.98000050  56.11000061
C    18.15999985  15.47000027  55.41999817
C    16.90000153  15.88999939  55.06999969
C    16.52000046  16.28999901  53.70999908
C    17.50000000  16.26000023  52.69000244
C    18.81000137  15.93000031  53.08000183
C    19.86999893  15.86999989  52.09000015
C    21.18999863  15.48999977  52.39999771
C    21.59000015  15.07999992  53.70999908
C    20.53999901  15.01999950  54.64000320
C    19.19999886  15.52000046  54.40000153
C    15.08999920  16.45000076  53.54999924
C    14.42999935  16.36999893  54.79000092
C    13.03999996  16.44000053  54.87999725
C    22.93999863  14.59000015  54.00000000
H    23.23829079  14.97559643  54.97490311
H    18.34000015  15.08999920  56.42000198
H    17.12000084  16.34000015  51.68000031
H    19.64999962  16.21999931  51.07999802
H    21.87000084  15.47000027  51.55000305
H    20.84000015  14.63999939  55.61999893
H    12.48999977  16.04999924  55.72000122
H    23.64999962  14.80999947  53.20000076
H    23.02000046  13.50000000  54.09000015
