96

S    12.31999969  16.82999992  44.40999985
C     9.59999943  17.27000046  44.94999695
C    10.84000015  16.75000000  45.31000137
C    11.10000038  16.13000107  46.63999939
C    10.01000023  16.18999863  47.54000092
C     8.69000053  16.59000015  47.15000153
C     7.60999966  16.61999893  48.06999969
C     6.42000008  17.14999962  47.71999741
C     6.25000000  17.65999985  46.45000076
C     7.17999983  17.56000137  45.44000244
C     8.48999977  17.15999985  45.84000015
C    12.55000019  15.88999939  46.84000015
C    13.31999969  16.17000008  45.65999985
C    14.72000027  16.15999985  45.56000137
C     4.92000008  18.12000084  46.00999832
H     4.46667051  17.42257118  45.30559540
H     9.46000004  17.79999924  44.02000046
H    10.26000023  15.78999996  48.52000427
H     7.76000023  16.31000137  49.09999847
H     5.59000015  17.11000061  48.41999817
H     7.03000021  18.02000046  44.45999908
H    15.25000000  16.53000069  44.68000031
H     4.23999977  18.27000046  46.84999847
H     5.00999975  19.12999916  45.59000015
S    15.88000107  15.26999950  49.23999786
C    18.45999908  14.88999939  48.50000000
C    17.25000000  15.36999893  48.22000122
C    16.87999916  15.80000019  46.93000031
C    17.87999916  15.86999989  45.94999695
C    19.18000031  15.47999954  46.26999664
C    20.27000046  15.51000023  45.34999847
C    21.51000023  14.96999931  45.65000153
C    21.80000114  14.45000076  46.95999908
C    20.75000000  14.30999947  47.88999939
C    19.47999954  14.93999958  47.57999802
C    15.40999985  15.88999939  46.77999878
C    14.72000027  15.65000057  47.95999908
C    13.32999992  15.60999966  48.01000214
C    23.22000122  14.06000042  47.37999725
H    23.57921791  14.54150581  48.28951263
H    18.61999893  14.11999893  49.26000214
H    17.53000069  16.09000015  44.93999863
H    20.05000114  15.93000031  44.36999893
H    22.20999908  14.86999989  44.82999802
H    20.96999931  13.81000042  48.82999802
H    12.84999943  15.26000023  48.92000198
H    24.00000000  14.27999973  46.63999939
H    23.21000099  12.97000027  47.50000000
S    11.67000008  16.59000015  50.86999893
C     9.06999969  17.05000114  51.63999939
C    10.29999924  16.69999886  51.95999908
C    10.67000008  16.39999962  53.29000092
C     9.73999977  16.27000046  54.27999878
C     8.38999939  16.67000008  53.99000168
C     7.26000023  16.52000046  54.91000366
C     6.07999992  17.04000092  54.59000015
C     5.82000017  17.61999893  53.29000092
C     6.84999990  17.59000015  52.38999939
C     8.11999989  17.14999962  52.70000076
C    12.13999939  16.21999931  53.39000320
C    12.77999973  16.31000137  52.23999786
C    14.17000008  16.35000038  52.25000000
C     4.44000006  18.02000046  52.81999969
H     4.10871077  17.32922745  52.04464340
H     8.94999981  17.53999901  50.68000031
H     9.94000053  15.93000031  55.28999710
H     7.31999969  15.88000107  55.77999878
H     5.28999996  17.00000000  55.34000015
H     6.58999968  17.88999939  51.38000107
H    14.61999989  16.48999977  51.26999664
H     3.73000002  18.09000015  53.64999771
H     4.55999994  19.03000069  52.39999771
S    15.39999962  15.72999954  55.97999954
C    18.00000000  15.15999985  55.12000275
C    16.79000092  15.69000053  54.80999756
C    16.36999893  16.01000023  53.47000122
C    17.38000107  16.05999947  52.54000092
C    18.64999962  15.57000065  52.85999680
C    19.69000053  15.52999973  51.91999817
C    21.01000023  15.21000004  52.22000122
C    21.22999954  14.63999939  53.52000427
C    20.27000046  14.40999985  54.47999954
C    18.98999977  14.96999931  54.13999939
C    14.96000099  16.18000031  53.43000031
C    14.28999996  16.03000069  54.59000015
C    12.84999943  16.04999924  54.59000015
C    22.65999985  14.39000034  54.02000046
H    22.94686127  14.92786503  54.92361069
H    18.22999954  14.91000080  56.14999771
H    17.18000031  16.27000046  51.49000168
H    19.40999985  15.78999996  50.90999985
H    21.71999931  15.21000004  51.39999771
H    20.43000031  14.22000027  55.52999878
H    12.35000038  15.88000107  55.54999924
H    23.39999962  14.56999969  53.22999954
H    22.79000092  13.30000019  54.13999939
