96

S    12.38000011  17.13999939  44.06999969
C     9.68999958  17.46000099  44.58000183
C    10.90999985  17.02000046  44.94999695
C    11.09000015  16.34000015  46.23000336
C    10.03999901  16.14999962  46.97999954
C     8.73999977  16.65999985  46.59999847
C     7.72000027  16.69999886  47.55000305
C     6.47000027  17.20999908  47.22999954
C     6.24000025  17.79000092  45.90999985
C     7.27999973  17.90999985  45.01999664
C     8.52999973  17.39999962  45.38999939
C    12.53999901  16.17000008  46.52999878
C    13.32999992  16.47999954  45.37000275
C    14.72000027  16.50000000  45.34000015
C     4.86999989  18.22999954  45.48999786
H     4.50896931  17.59458733  44.68128967
H     9.63000011  18.07999992  43.68999863
H    10.24000072  15.78999996  47.97999954
H     8.00000000  16.21999931  48.47999954
H     5.65999985  17.20000076  47.94000244
H     7.16000032  18.27000046  44.00000000
H    15.31999969  16.57999992  44.43999863
H     4.21000004  18.22000122  46.36000061
H     4.96000004  19.29999924  45.25000000
S    15.67000008  15.51000023  49.10999680
C    18.34000015  15.13000011  48.50999832
C    17.07999992  15.53999996  48.06999969
C    16.80999947  15.82999992  46.70000076
C    17.86000061  15.84000015  45.76000214
C    19.17000008  15.51000023  46.26999664
C    20.22999954  15.64000034  45.31000137
C    21.52000046  15.27999973  45.79000092
C    21.75000000  14.75000000  47.11000061
C    20.78000069  14.80999947  48.06000137
C    19.47000122  15.11000061  47.64999771
C    15.39000034  16.13000107  46.55000305
C    14.61999989  15.95000076  47.71999741
C    13.22000027  15.93000031  47.75000000
C    23.15999985  14.26000023  47.47000122
H    23.44299126  14.62581635  48.45701218
H    18.48999977  14.89999962  49.55999756
H    17.78000069  16.13000107  44.72000122
H    20.02000046  16.13000107  44.36000061
H    22.36999893  15.47999954  45.14999771
H    21.02000046  14.75999928  49.12000275
H    12.72999954  15.51000023  48.62999725
H    23.77000046  14.68000031  46.65999985
H    23.00000000  13.17000008  47.45999908
S    15.98000050  13.15000057  52.54000092
C    18.67000008  12.46999931  51.84000015
C    17.32999992  12.61000061  51.49000168
C    16.84000015  12.25000000  50.17000198
C    17.77000046  11.64000034  49.27000046
C    19.12999916  11.67000008  49.56999969
C    20.03999901  11.03999996  48.75999832
C    21.35000038  10.95000076  49.10999680
C    21.84999847  11.36999989  50.41999817
C    20.94000053  11.84999943  51.26999664
C    19.57999992  12.11999989  50.86999893
C    15.39000034  12.39999962  50.04000092
C    14.81999969  12.86999893  51.24000168
C    13.50000000  13.17999935  51.27999878
C    23.29999924  11.10000038  50.77000046
H    23.61739540  11.45346165  51.75103378
H    19.03000069  12.53000069  52.85999680
H    17.48999977  11.31000042  48.27000046
H    19.70999908  10.70000076  47.77999878
H    22.07999992  10.62999916  48.37999725
H    21.17000198  12.07999992  52.30999756
H    13.00000000  13.63999939  52.12999725
H    23.38000107  10.01000023  50.70999908
H    23.85999870  11.63000011  50.00000000
S    12.05000019  12.20000076  47.74000168
C     9.50000000  12.79000092  48.43999863
C    10.78999996  12.88000011  48.81000137
C    11.21999931  13.15000057  50.11000061
C    10.19999981  13.53999996  51.04000092
C     8.82000065  13.55999947  50.68999863
C     7.73999977  13.89999962  51.59000015
C     6.42000008  13.93000031  51.17000198
C     6.05000019  13.61999989  49.79999924
C     7.02000046  13.23999977  48.92000198
C     8.42000008  13.10999966  49.34999847
C    12.68000031  12.94000053  50.15999603
C    13.22999954  12.32999992  48.97999573
C    14.53999996  12.07999992  48.93000031
C     4.71000004  14.04000092  49.29000092
H     4.48211384  13.59113312  48.32320786
H     9.31999969  12.56000042  47.38999939
H    10.51000023  13.68000031  52.06999969
H     8.11999989  14.34999943  52.50999832
H     5.64000034  14.45000076  51.70999908
H     6.71999979  13.12999916  47.88000107
H    15.11999989  11.77999973  48.06999969
H     4.59999990  15.13000011  49.15999985
H     3.91999984  13.66000080  49.95999908
