96

S    12.25000000  16.69999886  44.31999969
C     9.61000061  17.10000038  44.98000336
C    10.86999989  16.75000000  45.38000107
C    11.21999931  16.46000099  46.77999878
C    10.15999985  16.36999893  47.67000198
C     8.80999947  16.84000015  47.29999924
C     7.73999977  16.79999924  48.20999908
C     6.50000000  17.19000053  47.77000046
C     6.17000008  17.50000000  46.45999908
C     7.16000032  17.43999863  45.51000214
C     8.55000019  17.13999939  45.93000031
C    12.67000008  16.36999893  46.91999817
C    13.31999969  16.52000046  45.72999954
C    14.73000050  16.31999969  45.59999847
C     4.73000002  17.79000092  46.09000397
H     4.37247610  17.33236885  45.16758728
H     9.39000034  17.38999939  43.95999908
H    10.43000031  15.98000050  48.63999939
H     7.85000038  16.10999870  49.03999710
H     5.59999990  17.02999878  48.36000061
H     7.05999947  17.70000076  44.45999908
H    15.08999920  16.29999924  44.58000183
H     4.13999987  17.50000000  46.97000122
H     4.51999998  18.86999893  46.00999832
S    15.95999908  15.46000004  49.18000031
C    18.53000069  14.93999958  48.22000122
C    17.25000000  15.32999992  47.95999908
C    16.87999916  15.73999977  46.70999908
C    17.81999969  15.70000076  45.70000076
C    19.11999893  15.26999950  45.86000061
C    20.20000076  15.38000011  44.86999893
C    21.51000023  15.11000061  45.20999908
C    21.77000046  14.65999985  46.56000137
C    20.76999855  14.55999947  47.50999832
C    19.45000076  14.86999989  47.18999863
C    15.50000000  15.95999908  46.69000244
C    14.84000015  15.86999989  47.91999817
C    13.42000008  15.93999958  48.02999878
C    23.15000153  14.19999981  46.98999786
H    23.54794502  14.81112766  47.80009842
H    18.81999969  14.55999947  49.20000076
H    17.52000046  15.97000027  44.68999863
H    19.98999977  15.77999973  43.88000107
H    22.27999878  15.18000031  44.45999908
H    20.92000008  14.32999992  48.55999756
H    12.98999977  15.72999954  49.01000214
H    23.81000137  14.23999977  46.11999893
H    23.13999939  13.15999985  47.32999802
S    15.97000027  13.20000076  52.06999969
C    18.60000038  12.53999901  51.45000076
C    17.27000046  12.46999931  51.12999725
C    16.77000046  11.87999916  49.94999695
C    17.67000008  11.36000061  49.03999710
C    19.07999992  11.44000053  49.29999924
C    20.03999901  10.97000027  48.39000320
C    21.38000107  10.90000057  48.75999832
C    21.87000084  11.39000034  50.05000305
C    20.93000031  12.02999973  50.84999847
C    19.50000000  11.97999954  50.56999969
C    15.36000061  12.10000038  49.72000122
C    14.73000050  12.81999969  50.79999924
C    13.40000057  13.15999985  50.86999893
C    23.31000137  11.25000000  50.40000153
H    23.52724457  11.40207005  51.45725250
H    18.92000008  13.01000023  52.36999893
H    17.32999992  11.26999950  48.02000046
H    19.67000008  10.73999977  47.38999939
H    22.09000015  10.31000042  48.18000031
H    21.25000000  12.69000053  51.65000153
H    13.01000023  13.68999958  51.72999954
H    23.84000015  10.31999969  50.15999603
H    23.90999985  12.03999996  49.93999863
S    12.05000019  11.94000053  47.41000366
C     9.35000038  12.58999920  48.22999954
C    10.73999977  12.53999901  48.50000000
C    11.18999958  13.07999992  49.72000122
C    10.29000092  13.53000069  50.66999817
C     8.85999966  13.50000000  50.52000046
C     7.95000029  13.90999985  51.50000000
C     6.67000008  14.22000027  51.25999832
C     6.24000025  13.86000061  49.95999908
C     7.03999996  13.27999973  48.95999908
C     8.43000031  13.04999924  49.20000076
C    12.63000011  12.89999962  49.75999832
C    13.27000046  12.28999996  48.63999939
C    14.52999973  11.71000004  48.69999695
C     4.76999998  14.01000023  49.52000046
H     4.62724733  13.58174324  48.52787399
H     8.89999962  12.34000015  47.28000259
H    10.70000076  13.71999931  51.65999985
H     8.38000011  14.14000034  52.48000336
H     6.06999969  14.67000008  52.02999878
H     6.69000053  13.12000084  47.94000244
H    14.92000008  11.09000015  47.90000153
H     4.39000034  15.03000069  49.66999817
H     4.03999996  13.50999928  50.17000198
