96

S    12.23999977  17.17000008  44.22000122
C     9.53999996  17.50000000  44.95999908
C    10.82999992  17.06999969  45.27999878
C    11.05999947  16.36999893  46.49000168
C    10.06999969  16.18000031  47.43000031
C     8.73000050  16.54000092  47.12999725
C     7.73000002  16.45000076  48.11000061
C     6.46000004  16.94000053  47.80000305
C     6.07999992  17.38999939  46.46999741
C     7.13000011  17.64000130  45.56999969
C     8.47000027  17.20000076  45.83000183
C    12.53999901  16.02000046  46.59999847
C    13.22999954  16.45000076  45.41999817
C    14.63999939  16.44000053  45.34000015
C     4.63999987  17.77000046  46.16000366
H     4.30962467  17.26007271  45.25505829
H     9.30000019  17.94999886  44.01000214
H    10.31999969  15.88999939  48.44999695
H     8.02999973  16.13000107  49.09999847
H     5.66999960  16.95000076  48.54000092
H     6.84000015  18.20000076  44.68000031
H    15.18000031  16.72000122  44.43999863
H     4.01999998  17.42000008  47.00000000
H     4.56999969  18.86000061  46.03000259
S    15.90999985  15.17000008  48.88999939
C    18.59000015  15.01000023  48.09000015
C    17.30999947  15.36999893  47.78999710
C    16.87000084  16.00000000  46.59999847
C    17.93000031  16.22999954  45.68999863
C    19.27999878  15.78999996  45.93999863
C    20.39999962  16.03999901  44.98000336
C    21.68999863  15.65000057  45.27000046
C    21.97999954  15.01000023  46.51000214
C    20.97999954  14.77000046  47.43000031
C    19.63999939  15.29000092  47.19999695
C    15.42000008  16.11999893  46.46999741
C    14.78000069  15.72000027  47.61000061
C    13.38000107  15.59999943  47.70000076
C    23.38000107  14.80999947  46.98999786
H    23.54206657  15.27505875  47.96239471
H    18.84000015  14.63000107  49.08000183
H    17.65999985  16.72000122  44.75999832
H    20.15999985  16.46999931  44.01000214
H    22.43000031  15.77000046  44.47999954
H    21.09000015  14.32999992  48.41999817
H    12.93000031  15.32999992  48.64999771
H    24.03000069  15.18000031  46.18000031
H    23.52999878  13.73000050  47.11999893
S    11.63000011  17.13000107  50.73999786
C     8.97000027  17.45000076  51.38000107
C    10.22999954  17.11000061  51.79999924
C    10.59000015  16.80999947  53.15999985
C     9.48999977  16.73999977  54.06000137
C     8.14000034  16.92000008  53.60000229
C     7.03999996  16.54000092  54.38999939
C     5.75999975  16.72000122  53.94000244
C     5.51000023  17.26000023  52.65999603
C     6.57000017  17.61999893  51.91999817
C     7.90000010  17.39999962  52.30999756
C    11.97999954  16.64999962  53.29999924
C    12.71000004  16.77000046  52.05999756
C    14.04999924  16.59000015  52.01000214
C     4.07000017  17.15999985  52.16999817
H     3.77363634  18.04908943  51.61341095
H     8.85999966  17.80999947  50.35999680
H     9.59999943  16.26000023  55.02999878
H     7.13999987  16.21999931  55.41999817
H     4.90000010  16.43000031  54.52000046
H     6.53999996  17.97999954  50.89000320
H    14.55999947  16.73999977  51.05999756
H     4.07999992  16.20000076  51.63999939
H     3.32999992  17.02999878  52.95999908
S    15.19999981  15.81999969  55.75000000
C    17.85000038  15.47999954  55.06000137
C    16.56999969  15.90000057  54.72000122
C    16.21000099  16.23999977  53.40000153
C    17.15999985  16.20000076  52.43999863
C    18.45999908  15.88000107  52.76000214
C    19.47999954  15.85000038  51.81999969
C    20.79000092  15.34999943  52.08000183
C    21.07999992  14.89999962  53.40000153
C    20.05000114  14.93999958  54.33000183
C    18.78000069  15.43000031  54.06000137
C    14.75999928  16.38000107  53.20000076
C    14.06000042  16.27000046  54.41999817
C    12.65999985  16.34000015  54.51000214
C    22.55000114  14.55000019  53.76999664
H    22.96552467  15.05149555  54.64403534
H    17.94999886  14.88999939  55.96000290
H    16.88999939  16.40999985  51.39999771
H    19.23999977  16.32999992  50.86999893
H    21.54000092  15.29999924  51.29000092
H    20.15999985  14.42000008  55.27999878
H    12.05000019  15.97000027  55.31999969
H    23.09000015  14.84000015  52.85999680
H    22.50999832  13.47000027  53.95999908
