96

S    12.30999947  16.80999947  44.36000061
C     9.67000008  17.28000069  45.11000061
C    10.88000107  16.72000122  45.44000244
C    11.18999958  16.15999985  46.75000000
C    10.14000034  16.18999863  47.71999741
C     8.85000038  16.75000000  47.39999771
C     7.60999966  16.47999954  48.11999893
C     6.34999990  16.90999985  47.75000000
C     6.17999983  17.53999901  46.56000137
C     7.26000023  17.75000000  45.76000214
C     8.61999989  17.34000015  46.10000229
C    12.63000011  16.03000069  46.86000061
C    13.32999992  16.26000023  45.68000031
C    14.72000027  16.23999977  45.58000183
C     4.78999996  17.86999893  46.04999924
H     4.59268332  17.38766861  45.09264755
H     9.30999947  17.57999992  44.13000107
H    10.29000092  15.62999916  48.63999939
H     7.71000004  15.85999966  49.01000214
H     5.51999998  16.60000038  48.36999893
H     7.21000004  18.25000000  44.79000092
H    15.25000000  16.60000038  44.69999695
H     4.00999975  17.67000008  46.79000092
H     4.88999987  18.93000031  45.83000183
S    15.95000076  15.59000015  49.34999847
C    18.56999969  15.43000031  48.47999954
C    17.25000000  15.71000004  48.15000153
C    16.82999992  15.97000027  46.84999847
C    17.77000046  16.17000008  45.86000061
C    19.11999893  15.65999985  46.05999756
C    20.12000084  15.70000076  45.04000092
C    21.40000153  15.43000031  45.34999847
C    21.80000114  15.06000042  46.63999939
C    20.86999893  15.01000023  47.64999771
C    19.51000023  15.34999943  47.39999771
C    15.39000034  16.02000046  46.77000046
C    14.70999908  15.88000107  48.02000046
C    13.30999947  15.77999973  48.04000092
C    23.31000137  14.86999989  46.95999908
H    23.51397133  15.11767769  48.00170517
H    18.97999954  15.07999992  49.41999817
H    17.56000137  16.57999992  44.87999725
H    19.76000023  16.15999985  44.12000275
H    22.20000076  15.59000015  44.62999725
H    21.07000160  14.78999996  48.69999695
H    12.69999981  15.67000008  48.93000031
H    23.95999908  15.39000034  46.25000000
H    23.59000015  13.81000042  46.95000076
S    16.13999939  13.04999924  52.43999863
C    18.81999969  12.61000061  51.58000183
C    17.46000099  12.56000042  51.33999634
C    16.95000076  12.06999969  50.05000305
C    17.79999924  11.71000004  49.06999969
C    19.19000053  11.69000053  49.29000092
C    20.10999870  11.31999969  48.27999878
C    21.50000000  11.31000042  48.40999985
C    21.97000122  11.63000011  49.75999832
C    21.11000061  12.18999958  50.75000000
C    19.71999931  12.13999939  50.54999924
C    15.52999973  12.25999928  49.97000122
C    14.94999981  12.75000000  51.17000198
C    13.60000038  13.09000015  51.30000305
C    23.48999977  11.46999931  50.14999771
H    23.79772949  11.68469524  51.17337799
H    19.11999893  12.89000034  52.57999802
H    17.39999962  11.54999924  48.06999969
H    19.67000008  10.84000015  47.41000366
H    22.19000053  11.00000000  47.63000107
H    21.54000092  12.51999950  51.68000031
H    13.21000004  13.53000069  52.21000290
H    23.74000168  10.40999985  49.98000336
H    24.13999939  11.90000057  49.36999893
S    12.22000027  12.11999989  47.67000198
C     9.53999996  12.57999992  48.46000290
C    10.90000057  12.61000061  48.74000168
C    11.33999920  13.05999947  50.00999832
C    10.44999981  13.31999969  51.02000427
C     9.02000046  13.38999939  50.70999908
C     8.03999996  13.92000008  51.62000275
C     6.72999954  14.21000004  51.19999695
C     6.34000015  13.80000019  49.91000366
C     7.27999973  13.27000046  49.00000000
C     8.60999966  13.02999973  49.40000153
C    12.75000000  12.93000031  50.14999771
C    13.38000107  12.50000000  48.95999908
C    14.70999908  12.11999989  48.81000137
C     4.94999981  13.99000072  49.48999786
H     4.69807720  13.53061104  48.53417587
H     9.15000057  12.38000011  47.45999908
H    10.75000000  13.73999977  51.97000122
H     8.23999977  14.28999996  52.63000107
H     6.02999973  14.55999947  51.95000076
H     7.09999990  13.07999992  47.95000076
H    15.00000000  11.67000008  47.87000275
H     4.67999983  15.05000019  49.43999863
H     4.28999996  13.64999962  50.28999710
