96

S    12.64000034  16.79999924  44.10999680
C    10.07999992  17.29999924  44.79000092
C    11.21999931  16.64999962  45.11000061
C    11.57999992  16.25000000  46.43000031
C    10.62999916  16.39000130  47.36999893
C     9.30999947  16.73999977  47.08000183
C     8.23999977  16.72000122  48.02000046
C     6.97000027  17.17000008  47.70999908
C     6.67999983  17.68000031  46.45000076
C     7.72000027  17.78000069  45.52999878
C     9.06000042  17.30999947  45.77000046
C    13.01000023  16.11999893  46.63000107
C    13.69999981  16.47999954  45.43000031
C    15.03000069  16.25000000  45.31000137
C     5.33999968  18.02000046  46.06999969
H     4.95057774  17.40805054  45.25638580
H     9.92000008  17.88999939  43.88999939
H    10.84000015  16.07999992  48.39000320
H     8.34000015  16.31000137  49.02000046
H     6.17999983  17.07999992  48.44999695
H     7.53000021  18.12999916  44.52999878
H    15.52000046  16.36999893  44.34999847
H     4.69000006  18.02000046  46.95000076
H     5.36999989  19.04999924  45.68999863
S    16.18999863  15.31999969  49.05000305
C    18.86999893  15.34999943  48.37999725
C    17.57999992  15.59999943  48.02000046
C    17.25000000  15.93000031  46.65000153
C    18.22999954  16.00000000  45.72000122
C    19.56999969  15.84000015  46.06999969
C    20.61000061  15.78999996  45.10000229
C    21.87000084  15.43000031  45.45999908
C    22.13000107  15.03000069  46.76000214
C    21.18999863  15.17000008  47.65999603
C    19.90999985  15.46000004  47.38999939
C    15.77000046  16.03000069  46.50000000
C    15.11000061  15.70000076  47.69000244
C    13.69999981  15.67000008  47.78999710
C    23.47999954  14.45000076  47.15000153
H    23.94775772  15.00718212  47.96169662
H    19.14999962  14.91000080  49.34000015
H    17.97999954  16.17000008  44.66999817
H    20.36000061  15.78999996  44.05000305
H    22.69000053  15.34999943  44.75000000
H    21.51000023  14.92000008  48.67000198
H    13.15000057  15.27999973  48.64999771
H    23.97000122  14.52000046  46.17000198
H    23.35000038  13.38999939  47.39999771
S    16.31999969  13.12999916  52.19999695
C    18.84000015  12.61000061  51.18000031
C    17.46000099  12.46000099  51.04999924
C    16.86000061  11.98999977  49.87999725
C    17.73999977  11.67000008  48.79000092
C    19.19000053  11.76000023  48.94000244
C    20.13000107  11.13000011  48.02999878
C    21.48999977  11.09000015  48.34000015
C    21.98999786  11.54999924  49.54000092
C    21.11000061  12.05999947  50.52000046
C    19.72999954  12.20999908  50.19000244
C    15.40999985  12.10999966  49.88999939
C    15.01999950  12.77999973  51.09000397
C    13.63999939  13.12000084  51.20999908
C    23.39999962  11.26000023  49.87999725
H    23.61264038  11.58262825  50.89921188
H    19.36000061  12.79999924  52.11999893
H    17.38000107  11.21999931  47.87000275
H    19.60000038  10.72999954  47.15999985
H    22.10000038  10.38000011  47.77999878
H    21.47000122  12.38999939  51.49000168
H    13.30000019  13.60000038  52.11999893
H    23.45999908  10.15999985  49.89999771
H    24.04999924  11.65999985  49.09000015
S    12.03999996  12.32999992  47.63000107
C     9.32999992  12.77999973  48.43000031
C    10.67999935  12.81000042  48.68000031
C    11.25000000  13.27999973  49.99000168
C    10.31000042  13.76999950  50.87999725
C     8.96000004  13.78999901  50.58000183
C     8.03999996  14.32999992  51.47999573
C     6.70000029  14.47000027  51.12999725
C     6.14000034  14.02999973  49.86000061
C     7.07000017  13.45999908  49.06999969
C     8.42000008  13.27000046  49.38999939
C    12.71999931  13.02000046  50.10000229
C    13.26000023  12.53000069  48.90999603
C    14.52999973  12.10000038  48.81000137
C     4.76999998  14.40999985  49.27999878
H     4.41756439  13.78424644  48.46004486
H     8.85999966  12.43999958  47.50999832
H    10.59999943  14.17000008  51.84999847
H     8.51000023  14.92000008  52.25999832
H     6.06999969  15.11000061  51.72999954
H     6.76000023  13.21000004  48.06000137
H    14.93999958  11.69999981  47.88999939
H     4.76999998  15.46000004  48.95999908
H     4.07999992  14.46000004  50.13999939
