96

S    12.35999966  16.80999947  43.94000244
C     9.68000031  17.20999908  44.65999985
C    10.93999958  16.79000092  44.97000122
C    11.28000069  16.34000015  46.33999634
C    10.29999924  16.31000137  47.29999924
C     9.02000046  16.72999954  47.01000214
C     7.92000008  16.52000046  47.84999847
C     6.61000013  16.88999939  47.52999878
C     6.38999987  17.63000107  46.31999969
C     7.44000006  17.80999947  45.43000031
C     8.69999981  17.30999947  45.70999908
C    12.71000004  16.15999985  46.45999908
C    13.43000031  16.39999962  45.27999878
C    14.81999969  16.46000099  45.31999969
C     5.00999975  18.15999985  46.06999969
H     4.60062647  17.68922043  45.17620087
H     9.39999962  17.64000130  43.69999695
H    10.54999924  15.88000107  48.27000046
H     8.13000011  16.03999901  48.80000305
H     5.80999947  16.77000046  48.25000000
H     7.17000008  18.27999878  44.48999786
H    15.36000061  16.72000122  44.41999817
H     4.42999983  17.95999908  46.97999954
H     4.92999983  19.22999954  45.86999893
S    15.76000023  15.57000065  49.12000275
C    18.35000038  15.13000011  48.50000000
C    17.13999939  15.62999916  48.09000015
C    16.87000084  15.85999966  46.72999954
C    17.94000053  15.80000019  45.83000183
C    19.23999977  15.44999981  46.18999863
C    20.23999977  15.22999954  45.21999741
C    21.44000053  14.73999977  45.61999893
C    21.67000008  14.28999996  46.90000153
C    20.73999786  14.46000004  47.84999847
C    19.45999908  15.07999992  47.56999969
C    15.44999981  16.05999947  46.47999573
C    14.73000050  15.85999966  47.69000244
C    13.38000107  15.93999958  47.68000031
C    23.05999947  13.89999962  47.29000092
H    23.45234680  14.56292820  48.06116104
H    18.52000046  14.68000031  49.47999954
H    17.71999931  15.93999958  44.77000427
H    20.09000015  15.59999943  44.20999908
H    22.29999924  14.80999947  44.94999695
H    20.96999931  14.22999954  48.88999939
H    12.79999924  15.84000015  48.60000229
H    23.68000031  13.89000034  46.38000107
H    23.00000000  12.88000011  47.69000244
S    16.32999992  13.07000065  52.22000122
C    18.94000053  12.25000000  51.40999603
C    17.60000038  12.43999958  51.10000229
C    17.11000061  12.17000008  49.80999756
C    17.98999977  11.76000023  48.79000092
C    19.37000084  11.49000072  49.13999939
C    20.26000023  11.13000011  48.15000153
C    21.61999893  10.82999992  48.43999863
C    22.09000015  11.03999996  49.80999756
C    21.18999863  11.47999954  50.73999786
C    19.82999992  11.69000053  50.48999786
C    15.67000008  12.31999969  49.73999786
C    15.13000011  12.79000092  50.94999695
C    13.81999969  13.12999916  50.96000290
C    23.59000015  10.82999992  50.11000061
H    23.84420586  11.10481834  51.13369751
H    19.36000061  12.55000019  52.36999893
H    17.60000038  11.54999924  47.80000305
H    19.92000008  10.92000008  47.14000320
H    22.23999977  10.51000023  47.60000229
H    21.51000023  11.89000034  51.70000076
H    13.34000015  13.57999992  51.83000183
H    23.78000069   9.76000023  49.91000366
H    24.18000031  11.43000031  49.40999985
S    12.28000069  12.25999928  47.38999939
C     9.72999954  12.76000023  48.37999725
C    11.06999969  12.84999943  48.52000427
C    11.61999893  13.26000023  49.79999924
C    10.82999992  13.52000046  50.86000061
C     9.42000008  13.59000015  50.63999939
C     8.55000019  13.96000004  51.68000031
C     7.22000027  14.27000046  51.38999939
C     6.69000053  13.94999981  50.07999802
C     7.49000025  13.35000038  49.13999939
C     8.82999992  13.22000027  49.34999847
C    13.04999924  13.12999916  49.80999756
C    13.60999966  12.51999950  48.61000061
C    14.89999962  12.13999939  48.54000092
C     5.26999998  14.35999966  49.72999954
H     5.02379942  13.83242702  48.80850601
H     9.15000057  12.43000031  47.51999664
H    11.28000069  13.63999939  51.84000015
H     8.98999977  14.21000004  52.63999939
H     6.61999989  14.68000031  52.18999863
H     7.11000013  13.07000065  48.15999985
H    15.31000042  11.63000011  47.68000031
H     5.22000027  15.44000053  49.56999969
H     4.55999994  14.09000015  50.52000046
