96

S    12.07999992  16.86000061  44.38999939
C     9.35999966  17.05000114  45.06000137
C    10.65999985  16.64999962  45.47000122
C    10.98000050  16.20000076  46.77000046
C     9.94999981  16.11999893  47.63999939
C     8.65999985  16.65999985  47.36999893
C     7.71000004  17.01000023  48.36999893
C     6.48000002  17.53000069  48.04999924
C     6.11000013  17.80999947  46.65999985
C     7.09999990  17.61000061  45.72000122
C     8.36000061  17.04000092  46.00999832
C    12.43000031  16.03000069  46.93000031
C    13.17999935  16.50000000  45.73999786
C    14.55000019  16.53000069  45.68000031
C     4.69999981  18.20000076  46.22000122
H     4.27293825  17.56703377  45.44213867
H     9.18000031  17.42000008  44.06000137
H    10.14000034  15.77000046  48.64999771
H     7.96000004  16.69999886  49.36999893
H     5.79999971  17.68000031  48.88000107
H     6.89000034  17.82999992  44.68000031
H    15.08999920  16.69000053  44.75000000
H     3.98999977  18.01000023  47.04000092
H     4.57999992  19.22999954  45.87999725
S    15.73999977  15.36999893  49.19000244
C    18.48999977  15.17000008  48.48999786
C    17.15999985  15.53999996  48.11999893
C    16.76000023  15.98000050  46.81000137
C    17.71000099  16.03000069  45.84999847
C    19.10000038  15.72999954  46.13999939
C    20.10000038  15.72000027  45.11000061
C    21.35000038  15.18000031  45.35999680
C    21.77000046  14.81999969  46.65999985
C    20.86000061  14.73999977  47.72999573
C    19.51000023  15.21999931  47.48000336
C    15.31000042  16.15999985  46.72000122
C    14.60000038  15.80000019  47.90000153
C    13.20000076  15.67000008  47.97999954
C    23.18000031  14.42000008  47.02000046
H    23.37461090  14.88567924  47.98611069
H    18.72999954  14.75000000  49.45999908
H    17.46999931  16.13000107  44.79000092
H    19.79999924  16.11999893  44.15000153
H    22.13000107  15.26999950  44.61000061
H    21.18000031  14.34999943  48.68999863
H    12.76000023  15.59000015  48.97999573
H    23.95999908  14.67000008  46.30000305
H    23.26999855  13.34000015  47.22000122
S    12.05999947  17.57999992  50.98999786
C     9.32999992  17.90999985  51.86000061
C    10.60999966  17.38999939  52.04000092
C    10.98000050  16.72999954  53.25000000
C     9.96999931  16.50000000  54.19000244
C     8.65999985  16.93000031  53.95999908
C     7.55999994  16.63999939  54.85000229
C     6.28000021  17.13000107  54.61999893
C     6.01000023  17.80999947  53.43000031
C     6.96000004  18.19000053  52.56000137
C     8.30000019  17.71999931  52.84999847
C    12.38000011  16.43000031  53.36999893
C    13.07999992  17.00000000  52.31999969
C    14.48999977  16.97000122  52.36000061
C     4.59000015  18.11000061  53.20999908
H     4.30055428  17.80677223  52.20383072
H     9.02999973  18.30999947  50.90000153
H    10.19999981  15.95999908  55.10000229
H     7.77999973  16.02000046  55.72000122
H     5.45000029  17.02999878  55.31000137
H     6.86999989  18.73999977  51.63000107
H    15.03000069  17.47999954  51.56999969
H     4.01999998  17.65999985  54.02999878
H     4.59000015  19.19999886  53.34000015
S    15.42000008  15.44999981  55.87999725
C    18.11000061  15.08999920  55.21999741
C    16.87000084  15.54999924  54.85000229
C    16.67000008  16.14999962  53.62999725
C    17.72999954  16.31000137  52.77000046
C    19.00000000  15.71000004  53.11000061
C    20.13999939  15.71000004  52.22000122
C    21.30000114  15.15999985  52.64999771
C    21.51000023  14.57999992  53.88999939
C    20.48999977  14.68999958  54.75000000
C    19.20999908  15.15999985  54.38000107
C    15.21999931  16.34000015  53.37999725
C    14.45000076  15.85999966  54.50000000
C    13.09999943  15.88999939  54.54000092
C    22.85000038  14.17000008  54.29999924
H    23.07842255  14.57687855  55.28507614
H    18.23999977  14.51000023  56.12999725
H    17.53000069  16.76000023  51.79999924
H    19.97999954  16.05999947  51.19999695
H    22.13999939  15.29999924  51.97000122
H    20.71000099  14.32999992  55.75000000
H    12.56000042  15.46000004  55.37000275
H    23.61000061  14.47000027  53.56999969
H    22.85000038  13.07000065  54.40999985
