96

S    12.13999939  16.59000015  44.29999924
C     9.73999977  17.65999985  45.30000305
C    10.93999958  17.00000000  45.47999954
C    11.26000023  16.61999893  46.79999924
C    10.34999943  16.67000008  47.80000305
C     9.02999973  17.12000084  47.61000061
C     7.95000029  16.94000053  48.44999695
C     6.63000011  17.30999947  48.01000214
C     6.40999985  17.84000015  46.76000214
C     7.44000006  18.09000015  45.91999817
C     8.76999950  17.69000053  46.29000092
C    12.69000053  16.32999992  46.90999985
C    13.35000038  16.35000038  45.65000153
C    14.70999908  16.27000046  45.50000000
C     4.97000027  18.02999878  46.26999664
H     4.65764189  17.35669518  45.47175217
H     9.39999962  18.09999847  44.36999893
H    10.55999947  16.26000023  48.79000092
H     8.13000011  16.45000076  49.40000153
H     5.80999947  17.00000000  48.63999939
H     7.22000027  18.19000053  44.86000061
H    15.24000072  16.39000130  44.55999756
H     4.41000032  17.94000053  47.21000290
H     4.67999983  19.03000069  45.91999817
S    15.90000057  15.44000053  49.22000122
C    18.48999977  14.85000038  48.47999954
C    17.25000000  15.21000004  48.08000183
C    16.87999916  15.65999985  46.73999786
C    17.85000038  15.77999973  45.80999756
C    19.11000061  15.19000053  46.09000397
C    20.17999840  15.19000053  45.08999634
C    21.45000076  14.78999996  45.33000183
C    21.76000214  14.26000023  46.69000244
C    20.79000092  14.27000046  47.65999603
C    19.42000008  14.75000000  47.44999695
C    15.44000053  15.97000027  46.63999939
C    14.84000015  15.82999992  47.88999939
C    13.43999958  15.97000027  48.06999969
C    23.19999886  13.97999954  47.15000153
H    23.55961800  14.61781406  47.95744705
H    18.73999977  14.34999943  49.41999817
H    17.60000038  16.26000023  44.86000061
H    19.89999962  15.72999954  44.20000076
H    22.21999931  15.14999962  44.65000153
H    21.09000015  14.21000004  48.70999908
H    13.00000000  15.82999992  49.05000305
H    23.95999908  13.97999954  46.36000061
H    23.25000000  12.97000027  47.56999969
S    15.82999992  13.17000008  52.36999893
C    18.50000000  12.38999939  51.66999817
C    17.13999939  12.38999939  51.36000061
C    16.61999893  12.00000000  50.06000137
C    17.48999977  11.31000042  49.23999786
C    18.93000031  11.28000069  49.55999756
C    19.82999992  10.77000046  48.66000366
C    21.11999893  10.78999996  48.92000198
C    21.68000031  11.33999920  50.07999802
C    20.75000000  11.97000027  50.91999817
C    19.40999985  11.90999985  50.72999954
C    15.19999981  12.38999939  49.89999771
C    14.65000057  12.97999954  51.04999924
C    13.27999973  13.30000019  51.13999939
C    23.11000061  11.23999977  50.44000244
H    23.36498642  11.57512474  51.44537354
H    18.86000061  12.86000061  52.57999802
H    17.09000015  11.03000069  48.27000046
H    19.47000122  10.44000053  47.68000031
H    21.75000000  10.31999969  48.16999817
H    21.14000130  12.46999931  51.81000137
H    12.79999924  13.68999958  52.04000092
H    23.36000061  10.18000031  50.34000015
H    23.71999931  11.69999981  49.65000153
S    11.92000008  12.18000031  47.58999634
C     9.22000027  12.71999931  48.25000000
C    10.52999973  12.67000008  48.59000397
C    10.98000050  13.22999954  49.87999725
C    10.03999901  13.78000069  50.70000076
C     8.69999981  13.75000000  50.41999817
C     7.72000027  14.18000031  51.39999771
C     6.39999962  14.17000008  51.10000229
C     5.96000004  13.75000000  49.85000229
C     6.84000015  13.27000046  48.94000244
C     8.25000000  13.22999954  49.20999908
C    12.46000099  13.14000034  50.02999878
C    13.05999947  12.55000019  48.86000061
C    14.37999916  12.20000076  48.81999969
C     4.51000023  13.86000061  49.41999817
H     4.43199301  13.57633686  48.37044907
H     8.92000008  12.35999966  47.27000427
H    10.29999924  14.18000031  51.68000031
H     8.18000031  14.60000038  52.29999924
H     5.64000034  14.46000004  51.81000137
H     6.53999996  12.81000042  48.00000000
H    14.78000069  11.69000053  47.95000076
H     4.13000011  14.88999939  49.43999863
H     3.86000013  13.28999996  50.08999634
