96

S    12.35999966  16.75000000  44.45000076
C     9.61999989  17.13000107  45.24000168
C    10.92000008  16.61000061  45.47000122
C    11.21999931  16.05999947  46.75000000
C    10.24000072  15.93000031  47.69000244
C     8.89999962  16.47999954  47.49000168
C     7.85000038  16.44000053  48.40000153
C     6.60000038  16.97999954  48.11000061
C     6.34999990  17.46999931  46.81000137
C     7.28999996  17.47999954  45.89000320
C     8.64000034  17.09000015  46.20999908
C    12.68000031  15.80000019  46.90000153
C    13.40999985  16.13000107  45.68000031
C    14.80000019  16.00000000  45.59000015
C     4.99000025  17.64999962  46.25999832
H     4.80008554  17.13652611  45.31745911
H     9.35000038  17.61999893  44.31000137
H    10.50000000  15.40999985  48.60000229
H     8.02999973  15.90999985  49.33000183
H     5.82999992  16.94000053  48.87000275
H     7.07999992  17.95999908  44.93999863
H    15.34999943  16.21000099  44.66999817
H     4.26000023  17.36999893  47.02999878
H     4.94999981  18.73999977  46.11000061
S    15.88999939  15.31000042  49.27999878
C    18.53999901  14.96999931  48.44999695
C    17.26000023  15.44999981  48.20000076
C    16.87000084  15.69000053  46.86000061
C    17.93000031  15.77999973  45.91999817
C    19.25000000  15.50000000  46.25000000
C    20.29000092  15.59999943  45.31999969
C    21.57999992  15.15999985  45.63999939
C    21.84999847  14.59000015  46.90000153
C    20.84000015  14.37999916  47.77999878
C    19.60000038  14.93000031  47.51999664
C    15.44000053  15.78999996  46.73999786
C    14.75000000  15.59000015  47.94000244
C    13.36999989  15.57000065  48.06999969
C    23.28000069  14.30999947  47.29000092
H    23.53231812  14.87400723  48.18796158
H    18.85000038  14.70000076  49.45999908
H    17.67000008  16.18000031  44.93999863
H    20.09000015  16.04999924  44.34999847
H    22.39000130  15.39000034  44.93999863
H    21.04000092  13.88000011  48.72000122
H    12.93000031  15.62999916  49.06000137
H    23.95000076  14.68999958  46.50000000
H    23.46999931  13.26000023  47.54000092
S    15.84000015  13.09999943  52.27000427
C    18.52000046  12.43000031  51.51000214
C    17.17000008  12.42000008  51.20999908
C    16.65999985  11.92000008  49.93000031
C    17.61000061  11.43000031  49.06999969
C    19.01000023  11.44999981  49.33000183
C    19.97999954  10.84000015  48.50999832
C    21.28999901  10.95999908  48.73000336
C    21.77000046  11.64999962  49.88999939
C    20.88000107  12.23000050  50.72999954
C    19.47999954  12.11999989  50.54000092
C    15.22999954  12.20000076  49.79999924
C    14.65999985  12.81999969  50.94999695
C    13.35000038  13.27999973  51.03000259
C    23.26999855  11.51999950  50.26000214
H    23.43354416  11.88116169  51.27534103
H    18.92000008  12.79999924  52.44999695
H    17.26000023  11.28000069  48.04999924
H    19.55999947  10.25000000  47.70000076
H    22.01000023  10.31999969  48.22999954
H    21.14999962  12.71000004  51.66999817
H    12.89000034  13.50999928  51.98999786
H    23.40999985  10.44000053  50.17000198
H    23.97999954  11.97999954  49.54999924
S    11.92999935  12.18000031  47.41000366
C     9.27999973  12.61999989  48.29000092
C    10.60999966  12.61999989  48.54000092
C    11.18999958  13.04999924  49.79999924
C    10.29000092  13.42000008  50.79000092
C     8.89999962  13.30999947  50.59999847
C     7.96999979  13.88000011  51.55000305
C     6.65999985  14.00000000  51.29000092
C     6.17999983  13.48000050  50.02999878
C     7.03000021  13.14000034  49.02999878
C     8.36000061  12.93000031  49.29000092
C    12.61000061  12.94000053  49.89999771
C    13.12999916  12.43000031  48.70999908
C    14.42999935  12.02999973  48.64999771
C     4.76999998  13.76000023  49.75999832
H     4.60801840  13.48533535  48.71768188
H     8.92000008  12.56000042  47.25999832
H    10.59999943  13.81999969  51.75000000
H     8.47999954  14.27999973  52.42000198
H     5.98999977  14.32000065  52.08000183
H     6.71000004  13.30000019  48.01000214
H    14.92000008  11.64999962  47.75000000
H     4.48999977  14.81999969  49.88999939
H     4.11999989  13.07999992  50.31999969
