96

S    12.17000008  17.02999878  44.18000031
C     9.68000031  17.31999969  45.07999802
C    10.92000008  16.87999916  45.33000183
C    11.23999977  16.36000061  46.59000015
C    10.26000023  16.28000069  47.56999969
C     8.89000034  16.62999916  47.29000092
C     7.82000017  16.54000092  48.25000000
C     6.56000042  16.86000061  47.88999939
C     6.25999975  17.47999954  46.59000015
C     7.27999973  17.63000107  45.61999893
C     8.60999966  17.19000053  45.97000122
C    12.69999981  16.25000000  46.59999847
C    13.31999969  16.61999893  45.41999817
C    14.67000008  16.64999962  45.31000137
C     4.86000013  17.93000031  46.18000031
H     4.45654106  17.30003929  45.38724136
H     9.48999977  17.71999931  44.08000183
H    10.52000046  15.84000015  48.53000259
H     8.13000011  16.17000008  49.22000122
H     5.79999971  16.70999908  48.64999771
H     6.98999977  18.00000000  44.64000320
H    15.07999992  16.79999924  44.31999969
H     4.25000000  17.85000038  47.09000015
H     4.94000006  18.96999931  45.86999893
S    16.01000023  15.77000046  48.93000031
C    18.48999977  15.11999989  48.15000153
C    17.28000069  15.67999935  47.83000183
C    16.90000153  16.07999992  46.45000076
C    17.87999916  16.09000015  45.56000137
C    19.19999886  15.57000065  45.86000061
C    20.28000069  15.47999954  44.93000031
C    21.53000069  15.05000019  45.37000275
C    21.80000114  14.60000038  46.68000031
C    20.72000122  14.47000027  47.54000092
C    19.50000000  15.07999992  47.15999985
C    15.53999996  16.28000069  46.39999771
C    14.85999966  16.09000015  47.63000107
C    13.43999958  16.03999901  47.74000168
C    23.21000099  14.18000031  47.06999969
H    23.54319763  14.52768135  48.04785538
H    18.68000031  14.85000038  49.18000031
H    17.57999992  16.38000107  44.54999924
H    20.15000153  16.07999992  44.02999878
H    22.36000061  15.27999973  44.68999863
H    20.72000122  14.09000015  48.55999756
H    12.98999977  15.88000107  48.72000122
H    23.87000084  14.50000000  46.25999832
H    23.26000023  13.07999992  47.04000092
S    15.88000107  13.07000065  51.81000137
C    18.43000031  12.35000038  51.18000031
C    17.12000084  12.43999958  50.76000214
C    16.64999962  12.15999985  49.43000031
C    17.53000069  11.69999981  48.47000122
C    18.89000130  11.50000000  48.90999603
C    19.80999947  10.90000057  47.98999786
C    21.12999916  10.72999954  48.31999969
C    21.67000008  11.26999950  49.51000214
C    20.76999855  11.85999966  50.41999817
C    19.32999992  11.87000084  50.18000031
C    15.21000004  12.41000080  49.31000137
C    14.70000076  12.93000031  50.50000000
C    13.35999966  13.34000015  50.56000137
C    23.12999916  11.00999928  49.78000259
H    23.42876244  11.33721638  50.77587891
H    18.76000023  12.56000042  52.18999863
H    17.25000000  11.40999985  47.45999908
H    19.47000122  10.57999992  47.01000214
H    21.84000015  10.36000061  47.57999802
H    21.07000160  12.25999928  51.38000107
H    13.07999992  13.81000042  51.49000168
H    23.38000107   9.94000053  49.69999695
H    23.78999901  11.36000061  48.96999741
S    11.92999935  12.55000019  47.01000214
C     9.22000027  12.74000072  47.84000015
C    10.59999943  12.84999943  48.11000061
C    11.07999992  13.19000053  49.40000153
C    10.26999950  13.55000019  50.41999817
C     8.89999962  13.50000000  50.13000107
C     8.00000000  13.90999985  51.13999939
C     6.65000010  14.06000042  50.91999817
C     6.10000038  13.71999931  49.66999817
C     6.98999977  13.07000065  48.75999832
C     8.38999939  13.05999947  48.88000107
C    12.53000069  13.04999924  49.47000122
C    13.09999943  12.69999981  48.23999786
C    14.39000034  12.17000008  48.16999817
C     4.61999989  13.96999931  49.31999969
H     4.33335638  13.65469265  48.31674576
H     8.86999989  12.38999939  46.86999893
H    10.67999935  13.81000042  51.38999939
H     8.45000076  14.14999962  52.09999847
H     5.97000027  14.47999954  51.63999939
H     6.51999998  12.86999893  47.80000305
H    14.89999962  11.78999996  47.29000092
H     4.42999983  15.05000019  49.40000153
H     3.88000011  13.55000019  50.01999664
