96

S    12.20000076  16.62999916  44.06999969
C     9.59999943  16.95999908  44.72000122
C    10.90000057  16.69999886  45.11000061
C    11.21000099  16.43000031  46.50000000
C    10.10000038  16.52000046  47.38999939
C     8.76999950  16.87999916  47.00000000
C     7.76999998  17.14999962  47.94000244
C     6.51000023  17.59000015  47.50000000
C     6.32999992  17.92000008  46.13999939
C     7.30000019  17.71000099  45.20000076
C     8.52000046  17.14999962  45.61999893
C    12.64999962  16.32999992  46.63999939
C    13.25000000  16.31999969  45.38999939
C    14.60999966  16.28999901  45.27000046
C     4.94000006  18.50000000  45.76000214
H     4.51086283  17.83870697  45.00725174
H     9.43000031  17.43000031  43.75000000
H    10.22999954  16.27000046  48.44999695
H     8.01000023  17.13999939  49.00000000
H     5.73999977  17.87999916  48.20999908
H     7.20000029  17.95999908  44.13999939
H    15.11000061  16.52000046  44.34000015
H     4.32000017  18.61999893  46.65999985
H     5.19999981  19.47999954  45.34000015
S    15.77999973  16.00000000  49.08000183
C    18.42000008  15.60999966  48.37999725
C    17.15999985  15.93000031  48.00000000
C    16.77000046  16.09000015  46.60999680
C    17.82999992  16.10999870  45.68000031
C    19.20999908  15.88999939  46.04999924
C    20.22999954  15.65999985  45.06999969
C    21.42999840  15.14000034  45.41999817
C    21.67000008  14.82999992  46.72999954
C    20.65000153  14.91000080  47.67000198
C    19.47000122  15.51000023  47.45999908
C    15.34000015  16.18000031  46.51000214
C    14.70000076  16.27000046  47.76000214
C    13.35999966  16.34000015  47.78999710
C    23.06999969  14.34000015  47.14000320
H    23.39138985  14.85969257  48.04262543
H    18.52000046  15.15999985  49.36999893
H    17.61000061  16.21999931  44.61999893
H    19.93999863  15.71000004  44.02999878
H    22.15999985  14.94999981  44.62999725
H    20.82999992  14.47999954  48.66000366
H    12.75000000  16.42000008  48.68999863
H    23.75000000  14.55000019  46.30000305
H    23.11000061  13.23999977  47.18000031
S    15.97000027  13.38000107  52.12999725
C    18.56999969  12.75000000  51.42000198
C    17.23999977  12.76000023  51.09000397
C    16.76000023  12.35999966  49.84000397
C    17.78000069  12.02999973  48.87000275
C    19.13999939  11.87999916  49.23999786
C    20.10000038  11.42000008  48.37999725
C    21.44000053  11.43000031  48.75000000
C    21.83000183  11.72000027  50.08999634
C    20.93000031  12.20000076  50.96000290
C    19.59000015  12.35999966  50.52000046
C    15.36000061  12.65999985  49.69999695
C    14.73000050  13.17000008  50.90999985
C    13.43000031  13.59000015  50.94999695
C    23.23999786  11.44000053  50.38999939
H    23.54714775  11.76857758  51.38287354
H    18.89999962  12.79000092  52.45999908
H    17.34000015  11.72999954  47.93000031
H    19.85999870  10.92000008  47.43999863
H    22.14999962  11.00999928  48.04000092
H    21.17000198  12.35999966  52.01000214
H    13.00000000  14.01999950  51.84000015
H    23.34000015  10.34999943  50.33000183
H    23.88000107  11.82999992  49.59000015
S    12.05999947  12.44999981  47.48000336
C     9.43000031  12.92000008  48.09000015
C    10.76000023  13.00000000  48.48999786
C    11.21999931  13.52000046  49.71000290
C    10.21000004  13.71999931  50.61999893
C     8.82000065  13.73999977  50.28999710
C     7.86999989  14.15999985  51.22000122
C     6.52999973  14.30999947  50.90000153
C     6.11000013  13.99000072  49.61999893
C     7.04999971  13.50000000  48.63999939
C     8.43999958  13.35999966  48.99000168
C    12.65999985  13.45000076  49.82999802
C    13.22999954  12.89000034  48.63999939
C    14.57999992  12.53999901  48.48999786
C     4.74000025  14.42000008  49.27000046
H     4.49413681  14.09686565  48.25844955
H     9.07999992  12.64999962  47.09000015
H    10.64000034  13.96999931  51.58000183
H     8.30999947  14.73999977  52.02999878
H     5.86999989  14.77000046  51.63000107
H     6.80000019  13.21000004  47.62000275
H    15.00000000  12.23000050  47.54000092
H     4.71000004  15.50000000  49.43999863
H     4.07000017  13.94999981  49.99000168
