96

S    12.02999973  16.64999962  44.19000244
C     9.38000011  17.15999985  45.02999878
C    10.65999985  16.72000122  45.31999969
C    11.02000046  16.57999992  46.69000244
C    10.01000023  16.60000038  47.65999603
C     8.63000011  16.80999947  47.29999924
C     7.57000017  16.90000153  48.27000046
C     6.28000021  17.13000107  47.84000015
C     6.01000023  17.43000031  46.52000046
C     7.03000021  17.32999992  45.61000061
C     8.31999969  17.01000023  45.96000290
C    12.46999931  16.40999985  46.81999969
C    13.09999943  16.54999924  45.59000015
C    14.52000046  16.55999947  45.45999908
C     4.57999992  17.75000000  46.09000397
H     4.33441877  17.17938423  45.19435501
H     9.06999969  17.38000107  44.01000214
H    10.21999931  16.42000008  48.70999908
H     7.71000004  16.77999878  49.34000015
H     5.46000004  17.13999939  48.54999924
H     6.91999960  17.63000107  44.56999969
H    15.03000069  16.67000008  44.51000214
H     4.00000000  17.53999901  47.00000000
H     4.44000006  18.79999924  45.79000092
S    15.69000053  15.67999935  49.18000031
C    18.26000023  15.22999954  48.43999863
C    17.05999947  15.84000015  48.09000015
C    16.75000000  16.27000046  46.77999878
C    17.68000031  16.07999992  45.75000000
C    18.94000053  15.62999916  46.14999771
C    20.00000000  15.54999924  45.20000076
C    21.28999901  15.31000042  45.63999939
C    21.53000069  14.81999969  46.91999817
C    20.45999908  14.63000107  47.71999741
C    19.26000023  15.13000011  47.47000122
C    15.29000092  16.38000107  46.63999939
C    14.60000038  16.11999893  47.84000015
C    13.23999977  16.13999939  47.97000122
C    22.95000076  14.63999939  47.43000031
H    23.14544296  15.08155346  48.40720749
H    18.43000031  14.98999977  49.48999786
H    17.40999985  16.13999939  44.69999695
H    19.82999992  16.04999924  44.25000000
H    22.06999969  15.57000065  44.92000198
H    20.62999916  14.06000042  48.62999725
H    12.71000004  15.86999989  48.87000275
H    23.54000092  15.03000069  46.59000015
H    23.19999886  13.56999969  47.52999878
S    11.89000034  17.30999947  50.93999863
C     9.18000031  17.56000137  51.69000244
C    10.44999981  17.20999908  52.00000000
C    10.77000046  16.90000153  53.33000183
C     9.78999996  16.90000153  54.31999969
C     8.46000004  17.22999954  53.99000168
C     7.39000034  17.18000031  54.92000198
C     6.11999989  17.57999992  54.56999969
C     5.79999971  17.93000031  53.20000076
C     6.78999996  17.97999954  52.25999832
C     8.11999989  17.59000015  52.64999771
C    12.15999985  16.65999985  53.50999832
C    12.93000031  16.87000084  52.28000259
C    14.32000065  16.93000031  52.22000122
C     4.42999983  18.30000114  52.77999878
H     3.90956926  17.50528908  52.24550247
H     8.88000011  17.89999962  50.70000076
H    10.11000061  16.60000038  55.31000137
H     7.57000017  16.64999962  55.84999847
H     5.40000010  17.56000137  55.38000107
H     6.48999977  18.25000000  51.25000000
H    14.78000069  17.09000015  51.25000000
H     3.93000007  18.68000031  53.68000031
H     4.55999994  19.19999886  52.15999985
S    15.31000042  16.05999947  55.94999695
C    17.90999985  15.54999924  55.25000000
C    16.69999886  16.06999969  54.94999695
C    16.45000076  16.54999924  53.63999939
C    17.45000076  16.61999893  52.67000198
C    18.75000000  16.10000038  53.00000000
C    19.77000046  16.13999939  52.04999924
C    20.97999954  15.62999916  52.34000397
C    21.14999962  15.00000000  53.52000427
C    20.13000107  14.96000099  54.52999878
C    18.92000008  15.52000046  54.26000214
C    15.00000000  16.77999878  53.41999817
C    14.22999954  16.46999931  54.61000061
C    12.86999893  16.54999924  54.72999954
C    22.52000046  14.60999966  54.02000046
H    22.87741280  15.18623352  54.87341309
H    18.09999847  15.24000072  56.27999878
H    17.25000000  16.87000084  51.63000107
H    19.52000046  16.39999962  51.02000427
H    21.67000008  15.51000023  51.51000214
H    20.39999962  14.63000107  55.52999878
H    12.31999969  16.54999924  55.66999817
H    23.26000023  14.77000046  53.22000122
H    22.43000031  13.53000069  54.22999954
