96

S    12.20000076  16.77000046  44.09000015
C     9.55000019  16.80999947  44.72000122
C    10.78999996  16.43000031  45.06000137
C    11.19999981  15.93999958  46.26999664
C    10.22999954  15.77000046  47.27000427
C     8.97000027  16.31000137  46.98999786
C     7.96000004  16.21999931  48.04000092
C     6.63999987  16.64999962  47.88999939
C     6.30999994  17.07999992  46.52000046
C     7.26999998  17.22999954  45.54999924
C     8.59000015  16.81999969  45.75000000
C    12.61999989  15.67999935  46.46999741
C    13.30999947  16.15999985  45.34000015
C    14.65999985  16.28000069  45.34000015
C     4.86000013  17.32999992  46.18999863
H     4.60350323  16.97090530  45.19332504
H     9.26999950  17.21999931  43.75000000
H    10.39999962  15.18000031  48.15999985
H     8.27000046  15.60999966  48.88000107
H     6.00000000  16.60000038  48.76999664
H     7.07999992  17.68000031  44.58000183
H    15.26999950  16.62999916  44.52000046
H     4.19000006  16.93000031  46.95999908
H     4.74000025  18.42000008  46.20999908
S    15.72999954  15.01000023  48.95999908
C    18.51000023  15.05000019  48.23999786
C    17.20000076  15.39000034  47.95999908
C    16.77999878  15.77999973  46.68000031
C    17.73999977  15.92000008  45.65000153
C    19.12999916  15.80999947  45.97000122
C    20.09000015  15.77000046  44.93999863
C    21.35000038  15.36000061  45.20000076
C    21.76000214  15.06999969  46.56000137
C    20.81999969  14.96999931  47.54000092
C    19.47999954  15.34000015  47.27000427
C    15.32999992  15.75000000  46.45000076
C    14.63000107  15.27999973  47.60000229
C    13.23999977  15.24000072  47.60000229
C    23.15999985  14.73000050  46.88999939
H    23.43961334  15.19835281  47.83369446
H    18.81999969  14.65000057  49.20999908
H    17.51000023  16.03999901  44.59000015
H    19.78999901  16.05999947  43.94000244
H    22.11999893  15.24000072  44.45000076
H    21.11000061  14.44000053  48.43999863
H    12.63000011  14.89999962  48.43000031
H    23.77000046  15.15999985  46.07999802
H    23.13999939  13.63999939  46.93000031
S    16.06999969  12.77999973  52.22000122
C    18.71999931  12.38999939  51.38999939
C    17.35000038  12.32999992  51.12999725
C    16.86000061  11.76000023  49.92000198
C    17.71999931  11.39999962  48.94000244
C    19.14999962  11.43000031  49.10999680
C    20.07999802  10.76000023  48.27999878
C    21.40999985  10.57999992  48.69999695
C    21.90999985  11.21000099  49.78000259
C    21.02999878  11.87999916  50.66999817
C    19.62000084  11.94000053  50.34000015
C    15.42000008  11.77999973  49.80999756
C    14.85000038  12.48000050  50.97000122
C    13.55999947  12.86000061  51.05999756
C    23.35000038  10.95999908  50.17000198
H    23.73147011  11.45150948  51.06498718
H    19.12999916  12.67000008  52.35000229
H    17.35999870  10.80999947  48.09999847
H    19.62000084  10.03000069  47.61000061
H    22.04000092   9.89999962  48.13999939
H    21.38999939  12.13000107  51.65999985
H    13.22999954  13.53000069  51.84999847
H    23.48999977   9.88000011  50.27000046
H    23.90999985  11.26000023  49.27999878
S    11.95000076  11.64999962  47.61000061
C     9.35999966  12.35000038  48.37999725
C    10.72000027  12.42000008  48.66000366
C    11.21999931  12.84999943  49.92000198
C    10.34000015  13.35999966  50.77000046
C     8.92000008  13.31999969  50.56999969
C     7.95000029  13.78000069  51.53999710
C     6.65999985  13.83999920  51.20999908
C     6.21000004  13.34000015  49.95999908
C     7.05999947  12.68000031  49.10999680
C     8.43000031  12.86000061  49.34999847
C    12.61999989  12.53999901  50.05000305
C    13.19000053  11.92999935  48.87000275
C    14.56999969  11.63000011  48.70999908
C     4.84000015  13.86999989  49.54000092
H     4.62203884  13.59391594  48.50831604
H     8.96000004  11.92999935  47.45999908
H    10.77999973  13.78000069  51.66999817
H     8.36999989  14.25000000  52.42000198
H     6.01000023  14.47000027  51.81000137
H     6.80000019  12.30999947  48.11999893
H    14.92000008  11.43000031  47.70000076
H     4.86999989  14.96000099  49.59000015
H     4.01999998  13.48000050  50.15999603
