96

S    12.01000023  16.69999886  44.27000046
C     9.34000015  17.13000107  45.05000305
C    10.59000015  16.61999893  45.31999969
C    10.85999966  16.17000008  46.63999939
C     9.81000042  16.00000000  47.52999878
C     8.57999992  16.62999916  47.27000427
C     7.50999975  16.64999962  48.22000122
C     6.30000019  17.19000053  47.91999817
C     6.09000015  17.67000008  46.59000015
C     7.07000017  17.71999931  45.68999863
C     8.30000019  17.22999954  46.00000000
C    12.31999969  15.90999985  46.76000214
C    13.04999924  16.25000000  45.58000183
C    14.42999935  16.28999901  45.54999924
C     4.73000002  18.25000000  46.36000061
H     4.17307043  17.65782166  45.63387680
H     9.15999985  17.73999977  44.16999817
H     9.88000011  15.59000015  48.53000259
H     7.68000031  16.07999992  49.12000275
H     5.55999994  17.25000000  48.70999908
H     6.77999973  18.12999916  44.72000122
H    14.98000050  16.53000069  44.65000153
H     4.17000008  18.42000008  47.29000092
H     4.82999992  19.22000122  45.86000061
S    15.47000027  15.18000031  49.18000031
C    18.09000015  14.81999969  48.43999863
C    16.87999916  15.38000011  48.11000061
C    16.60000038  15.95999908  46.83000183
C    17.56000137  16.01000023  45.79999924
C    18.84000015  15.48999977  46.10000229
C    19.90999985  15.50000000  45.17000198
C    21.07000160  14.92000008  45.40999985
C    21.37000084  14.44000053  46.73999786
C    20.42000008  14.39000034  47.70000076
C    19.07999992  14.85999966  47.43000031
C    15.14000034  16.02000046  46.70000076
C    14.42999935  15.55999947  47.76000214
C    13.02000046  15.38000011  47.81999969
C    22.72999954  14.02999973  47.19999695
H    23.05006981  14.58478546  48.08196640
H    18.31999969  14.34000015  49.38000107
H    17.28000069  16.28000069  44.78000259
H    19.76000023  15.80000019  44.13000107
H    21.77999878  14.85999966  44.59000015
H    20.58000183  14.00000000  48.69999695
H    12.42000008  15.17000008  48.69999695
H    23.52000046  14.29999924  46.49000168
H    22.72999954  12.94000053  47.29000092
S    11.51999950  16.72000122  50.73999786
C     8.97999954  17.38000107  51.72000122
C    10.24000072  16.87999916  51.93999863
C    10.64000034  16.46999931  53.22000122
C     9.73999977  16.54000092  54.29999924
C     8.42000008  17.10000038  54.09000015
C     7.49000025  17.26000023  55.12000275
C     6.14000034  17.59000015  54.86000061
C     5.72000027  17.95999908  53.50999832
C     6.69000053  18.02000046  52.50000000
C     8.02999973  17.48999977  52.72999573
C    12.02000046  16.26000023  53.29000092
C    12.71999931  16.42000008  52.09000015
C    14.11000061  16.42000008  52.08000183
C     4.33999968  18.32999992  53.18000031
H     3.96810055  17.93055344  52.23647690
H     8.73000050  17.56000137  50.68000031
H    10.03999901  16.14999962  55.27000046
H     7.76999998  16.72999954  56.03000259
H     5.40999985  17.64000130  55.66999817
H     6.60000038  18.51000023  51.53999710
H    14.60000038  16.57999992  51.11999893
H     3.72000003  18.05999947  54.03999710
H     4.30000019  19.43000031  53.13000107
S    15.21000004  16.01000023  55.90999985
C    17.78000069  15.25000000  55.14999771
C    16.59000015  15.77999973  54.85000229
C    16.23999977  16.21999931  53.52000427
C    17.32999992  16.21000099  52.57999802
C    18.60999870  15.78999996  52.93000031
C    19.64999962  15.65000057  51.97000122
C    20.85000038  15.03000069  52.35000229
C    21.09000015  14.67000008  53.67000198
C    20.05000114  14.68000031  54.61000061
C    18.86000061  15.31000042  54.23999786
C    14.81999969  16.28999901  53.29999924
C    14.14000034  16.11999893  54.47000122
C    12.77999973  16.14999962  54.47000122
C    22.52000046  14.34000015  54.08000183
H    22.98025322  14.95366859  54.85439301
H    17.95999908  14.63000107  56.02000427
H    17.13000107  16.59000015  51.58000183
H    19.38999939  15.85999966  50.93999863
H    21.67000008  14.92000008  51.63999939
H    20.10999870  14.32000065  55.63000107
H    12.38000011  16.15999985  55.47999954
H    23.22000122  14.42000008  53.22999954
H    22.39999962  13.27999973  54.33000183
