96

S    12.25000000  16.69999886  44.31999969
C     9.61000061  17.10000038  44.98000336
C    10.86999989  16.75000000  45.38000107
C    11.21999931  16.46000099  46.77999878
C    10.15999985  16.36999893  47.67000198
C     8.80999947  16.84000015  47.29999924
C     7.73999977  16.79999924  48.20999908
C     6.50000000  17.19000053  47.77000046
C     6.17000008  17.50000000  46.45999908
C     7.16000032  17.43999863  45.51000214
C     8.55000019  17.13999939  45.93000031
C    12.67000008  16.36999893  46.91999817
C    13.31999969  16.52000046  45.72999954
C    14.73000050  16.31999969  45.59999847
C     4.73000002  17.79000092  46.09000397
H     4.37247610  17.33236885  45.16758728
H     9.39000034  17.38999939  43.95999908
H    10.43000031  15.98000050  48.63999939
H     7.85000038  16.10999870  49.03999710
H     5.59999990  17.02999878  48.36000061
H     7.05999947  17.70000076  44.45999908
H    15.08999920  16.29999924  44.58000183
H     4.13999987  17.50000000  46.97000122
H     4.51999998  18.86999893  46.00999832
S    15.95999908  15.46000004  49.18000031
C    18.53000069  14.93999958  48.22000122
C    17.25000000  15.32999992  47.95999908
C    16.87999916  15.73999977  46.70999908
C    17.81999969  15.70000076  45.70000076
C    19.11999893  15.26999950  45.86000061
C    20.20000076  15.38000011  44.86999893
C    21.51000023  15.11000061  45.20999908
C    21.77000046  14.65999985  46.56000137
C    20.76999855  14.55999947  47.50999832
C    19.45000076  14.86999989  47.18999863
C    15.50000000  15.95999908  46.69000244
C    14.84000015  15.86999989  47.91999817
C    13.42000008  15.93999958  48.02999878
C    23.15000153  14.19999981  46.98999786
H    23.54794502  14.81112766  47.80009842
H    18.81999969  14.55999947  49.20000076
H    17.52000046  15.97000027  44.68999863
H    19.98999977  15.77999973  43.88000107
H    22.27999878  15.18000031  44.45999908
H    20.92000008  14.32999992  48.55999756
H    12.98999977  15.72999954  49.01000214
H    23.81000137  14.23999977  46.11999893
H    23.13999939  13.15999985  47.32999802
S    11.94000053  17.25000000  51.00000000
C     9.19000053  17.29999924  51.47999573
C    10.47999954  17.04000092  51.95000076
C    10.86999989  16.61999893  53.27999878
C     9.78999996  16.32999992  54.13999939
C     8.43000031  16.63999939  53.72000122
C     7.40000010  16.61000061  54.72999954
C     6.17000008  17.17000008  54.43000031
C     5.78999996  17.56999969  53.11000061
C     6.80000019  17.43000031  52.15000153
C     8.11999989  17.05999947  52.38999939
C    12.25000000  16.61999893  53.56999969
C    12.97999954  16.93000031  52.37999725
C    14.32000065  16.97999954  52.35000229
C     4.30999994  17.93000031  52.83000183
H     3.82396507  17.31530762  52.07235718
H     8.84000015  17.79999924  50.58000183
H    10.01999950  16.10000038  55.18000031
H     7.68000031  16.18000031  55.68999863
H     5.36999989  17.21999931  55.17000198
H     6.51000023  17.72999954  51.14999771
H    14.81999969  16.98999977  51.38999939
H     3.65000010  17.89999962  53.69999695
H     4.26999998  18.95000076  52.43999863
S    15.48999977  16.18000031  56.03000259
C    18.09000015  15.44000053  55.26000214
C    16.90000153  16.02000046  54.91000366
C    16.52000046  16.42000008  53.57999802
C    17.46000099  16.29999924  52.61000061
C    18.78000069  15.88999939  52.95999908
C    19.82999992  15.82999992  51.90999985
C    21.09000015  15.44999981  52.27000427
C    21.40999985  15.11000061  53.60000229
C    20.45999908  15.13000011  54.58000183
C    19.11999893  15.47000027  54.29999924
C    15.08999920  16.68000031  53.50000000
C    14.39000034  16.54999924  54.72000122
C    13.03999996  16.39999962  54.72999954
C    22.84000015  14.91000080  53.96999741
H    23.07308197  15.27333355  54.97087860
H    18.27999878  15.11000061  56.27999878
H    17.20000076  16.47999954  51.56999969
H    19.57999992  16.09000015  50.87999725
H    21.87999916  15.39000034  51.52999878
H    20.72000122  14.78999996  55.58000183
H    12.46000099  16.23999977  55.63000107
H    23.47999954  15.22999954  53.13999939
H    22.92000008  13.81000042  53.96999741
