96

S    12.18999958  16.64999962  44.13000107
C     9.52999973  16.88999939  44.80999756
C    10.81999969  16.61999893  45.14999771
C    11.18000031  16.36999893  46.47999573
C    10.14000034  16.29999924  47.42000198
C     8.76999950  16.42000008  47.02999878
C     7.69999981  16.10000038  47.91999817
C     6.43000031  16.36999893  47.64999771
C     6.07999992  16.90999985  46.40999603
C     7.09999990  17.23999977  45.50000000
C     8.47000027  16.90000153  45.75000000
C    12.61000061  16.18000031  46.63000107
C    13.31999969  16.31000137  45.45999908
C    14.70999908  16.18999863  45.43000031
C     4.67000008  17.22999954  46.12999725
H     4.28426743  16.78816032  45.21125412
H     9.30999947  17.15999985  43.77999878
H    10.39000034  15.93000031  48.40999985
H     7.94000053  15.62999916  48.87000275
H     5.65999985  16.25000000  48.40000153
H     6.71999979  17.63000107  44.55999756
H    15.24000072  16.17000008  44.47999954
H     4.07999992  16.93000031  47.01000214
H     4.65999985  18.32999992  46.04000092
S    15.70000076  15.44999981  49.19000244
C    18.38000107  14.89999962  48.41999817
C    17.13999939  15.32999992  48.11999893
C    16.84999847  15.75000000  46.77999878
C    17.84000015  15.86999989  45.81999969
C    19.15999985  15.52999973  46.14999771
C    20.20999908  15.48999977  45.14999771
C    21.51000023  15.15999985  45.48999786
C    21.83000183  14.86999989  46.81000137
C    20.81999969  14.70000076  47.76000214
C    19.43000031  15.00000000  47.44999695
C    15.43000031  15.93000031  46.58000183
C    14.68999958  15.77999973  47.70999908
C    13.32999992  15.90000057  47.84000015
C    23.28000069  14.73000050  47.16999817
H    23.58716583  15.13224030  48.13537598
H    18.53000069  14.37999916  49.36000061
H    17.63000107  16.06999969  44.77000427
H    19.95000076  15.72999954  44.12000275
H    22.32999992  15.36999893  44.80999756
H    21.02999878  14.39000034  48.79000092
H    12.81999969  16.01000023  48.79000092
H    23.88999939  15.19000053  46.38999939
H    23.61000061  13.68999958  47.19999695
S    11.64999962  16.72999954  50.90000153
C     9.01000023  17.05000114  51.63999939
C    10.25000000  16.59000015  51.93999863
C    10.60999966  16.32999992  53.30999756
C     9.65999985  16.29999924  54.27999878
C     8.38000011  16.80999947  54.00000000
C     7.35000038  16.79000092  54.97000122
C     6.17000008  17.21999931  54.64000320
C     5.82000017  17.67000008  53.34000015
C     6.76999998  17.63000107  52.32999802
C     8.09000015  17.20000076  52.60000229
C    12.05000019  16.29999924  53.50999832
C    12.72999954  16.54000092  52.25000000
C    14.09000015  16.63999939  52.19999695
C     4.28000021  17.88999939  52.97999954
H     3.87365317  17.14986801  52.29066086
H     8.88000011  17.32999992  50.59999847
H     9.94000053  15.82999992  55.21999741
H     7.62000036  16.38000107  55.93999863
H     5.36000013  17.18000031  55.35999680
H     6.58999968  17.80999947  51.26999664
H    14.70000076  16.90000153  51.33999634
H     3.55999994  17.98999977  53.80000305
H     4.18000031  18.86999893  52.49000168
S    15.31999969  15.88000107  55.93000031
C    17.93000031  15.52000046  55.13000107
C    16.62999916  15.92000008  54.82999802
C    16.22999954  16.15999985  53.50000000
C    17.20999908  16.15999985  52.49000168
C    18.51000023  15.65999985  52.81999969
C    19.44000053  15.53999996  51.79999924
C    20.75000000  15.29000092  52.21000290
C    21.11999893  14.86999989  53.59000397
C    20.22000122  14.85999966  54.54000092
C    18.86999893  15.26000023  54.19000244
C    14.82999992  16.42000008  53.34000015
C    14.21000004  16.18000031  54.59000015
C    12.82999992  16.14999962  54.66999817
C    22.57999802  14.44000053  53.92000198
H    22.97738647  14.95802402  54.79283142
H    18.12000084  15.21000004  56.14999771
H    16.87999916  16.54999924  51.53999710
H    19.17000008  15.82999992  50.79000092
H    21.63999939  15.40999985  51.59999847
H    20.45000076  14.84000015  55.59999847
H    12.38999939  15.81999969  55.59999847
H    23.22000122  14.70999908  53.08000183
H    22.62000084  13.36999989  54.15999985
