96

S    12.06999969  17.22999954  44.13000107
C     9.36999989  17.38999939  44.84000397
C    10.65999985  17.00000000  45.15999603
C    11.03000069  16.47999954  46.46999741
C    10.06000042  16.38000107  47.41000366
C     8.73999977  16.77000046  47.14000320
C     7.67000008  16.70999908  48.02000046
C     6.39999962  17.15999985  47.81999969
C     6.05999994  17.54999924  46.49000168
C     7.04999971  17.67000008  45.52000046
C     8.39999962  17.22999954  45.79000092
C    12.48000050  16.34000015  46.60999680
C    13.15000057  16.72999954  45.40000153
C    14.56999969  16.67000008  45.31999969
C     4.61999989  17.87999916  46.24000168
H     4.40581226  17.46590233  45.25473785
H     9.26000023  17.92000008  43.89999771
H    10.19000053  16.10000038  48.46000290
H     7.82000017  16.20000076  48.96999741
H     5.63000011  17.05000114  48.57999802
H     6.91999960  18.09999847  44.52999878
H    15.10000038  16.81999969  44.38000107
H     4.03999996  17.38999939  47.02999878
H     4.51999998  18.96999931  46.19999695
S    15.62000084  15.60999966  48.93000031
C    18.34000015  15.42000008  48.34000015
C    17.05999947  15.71000004  47.93000031
C    16.76000023  16.05999947  46.55000305
C    17.81999969  16.04999924  45.59000015
C    19.10000038  15.65000057  46.03000259
C    20.17000008  15.67999935  45.20000076
C    21.40000153  15.31999969  45.47000122
C    21.57999992  14.67000008  46.76000214
C    20.59999847  14.55000019  47.69000244
C    19.31999969  15.21999931  47.34000397
C    15.31999969  16.23999977  46.38000107
C    14.63999939  15.90000057  47.55000305
C    13.25000000  15.93999958  47.68000031
C    22.89999962  14.18000031  47.29000092
H    23.34052658  14.89952660  47.98015976
H    18.40999985  15.06999969  49.36000061
H    17.70000076  16.31999969  44.54000092
H    20.00000000  16.04999924  44.19000244
H    22.19000053  15.52000046  44.75000000
H    20.86000061  14.14000034  48.66000366
H    12.89000034  15.53999996  48.61999893
H    23.55999947  14.06999969  46.42000198
H    22.63999939  13.20000076  47.70999908
S    11.90999985  17.10000038  50.61999893
C     9.21000004  17.38999939  51.35000229
C    10.47000027  16.92000008  51.65000153
C    10.78999996  16.45000076  52.95999908
C     9.77999973  16.26000023  53.86000061
C     8.47000027  16.72999954  53.57999802
C     7.50999975  16.76000023  54.61000061
C     6.24000025  17.25000000  54.36999893
C     5.93999958  17.81999969  53.08000183
C     6.89000034  17.73999977  52.00000000
C     8.19000053  17.30999947  52.29999924
C    12.23000050  16.31999969  53.15999985
C    13.01000023  16.65999985  51.98999786
C    14.37999916  16.81999969  52.04999924
C     4.51000023  18.17000008  52.81000137
H     4.12229633  17.59197044  51.97115326
H     9.00000000  17.68000031  50.31999969
H     9.96000004  15.80999947  54.82999802
H     7.86000013  16.34000015  55.54000092
H     5.53999996  17.07999992  55.18000031
H     6.65000010  17.80999947  50.93999863
H    14.94999981  17.20999908  51.20999908
H     4.11999989  18.04000092  53.82999802
H     4.48999977  19.23999977  52.57999802
S    15.46000004  15.80000019  55.70000076
C    18.18000031  15.46000004  54.93000031
C    16.86000061  15.88999939  54.65000153
C    16.53000069  16.39000130  53.30999756
C    17.46999931  16.52000046  52.36000061
C    18.79999924  16.10000038  52.67000198
C    19.78999901  16.03000069  51.58000183
C    21.09999847  15.78999996  51.84000015
C    21.53000069  15.40999985  53.18000031
C    20.59999847  15.17000008  54.16999817
C    19.19000053  15.52000046  53.93000031
C    15.07999992  16.39000130  53.15999985
C    14.37999916  16.06999969  54.31000137
C    12.97000027  16.07999992  54.36000061
C    22.98999977  15.18000031  53.44999695
H    23.21163559  15.53032875  54.45808792
H    18.39999962  14.98000050  55.87999725
H    17.17000008  16.62999916  51.31999969
H    19.42000008  16.38000107  50.61999893
H    21.80000114  15.84000015  51.00999832
H    20.85000038  14.77000046  55.14999771
H    12.46000099  15.90000057  55.30000305
H    23.71999931  15.38000011  52.65999603
H    23.12000084  14.11999893  53.67000198
