96

S    12.10000038  16.67000008  44.16999817
C     9.44000053  17.18000031  44.91000366
C    10.70000076  16.77999878  45.28999710
C    11.00000000  16.34000015  46.63999939
C     9.96000004  16.29999924  47.58999634
C     8.63000011  16.61999893  47.18999863
C     7.55999994  16.40999985  48.11999893
C     6.23000050  16.61999893  47.70000076
C     6.01999998  17.30999947  46.46999741
C     7.00000000  17.57999992  45.61000061
C     8.38000011  17.14999962  45.87999725
C    12.48000050  16.11999893  46.77000046
C    13.19000053  16.36999893  45.56000137
C    14.60000038  16.27000046  45.48999786
C     4.55999994  17.61000061  46.06999969
H     4.20997190  17.17425156  45.13420868
H     9.30000019  17.45000076  43.87000275
H    10.08999920  15.92000008  48.60000229
H     7.86000013  16.11999893  49.12000275
H     5.36000013  16.36999893  48.29000092
H     6.77999973  18.15000153  44.72000122
H    15.10000038  16.64999962  44.61000061
H     3.89999986  17.50000000  46.93999863
H     4.48999977  18.70000076  46.00999832
S    15.59000015  15.36999893  49.27999878
C    18.27000046  14.85000038  48.39000320
C    17.05999947  15.34999943  48.11999893
C    16.70999908  15.78999996  46.84000015
C    17.76000023  15.92000008  45.86000061
C    19.06999969  15.50000000  46.11999893
C    20.10000038  15.47999954  45.18000031
C    21.38999939  15.00000000  45.52000046
C    21.61000061  14.52000046  46.91999817
C    20.61000061  14.44000053  47.78999710
C    19.30999947  14.93999958  47.42000198
C    15.26999950  15.97000027  46.63000107
C    14.55999947  15.72000027  47.84999847
C    13.21000004  15.81999969  47.93000031
C    23.05999947  14.15999985  47.23999786
H    23.49220848  14.92522144  47.88476944
H    18.47999954  14.30999947  49.29999924
H    17.53999901  16.23999977  44.84000397
H    20.00000000  15.90000057  44.18000031
H    22.23999977  15.08999920  44.86000061
H    20.69000053  14.07999992  48.81000137
H    12.64000034  15.73999977  48.85000229
H    23.69999886  14.14000034  46.33999634
H    23.05000114  13.22000027  47.80000305
S    11.94000053  17.35999870  51.23000336
C     9.23999977  17.19000053  51.81999969
C    10.51000023  16.93000031  52.18000031
C    10.86999989  16.43000031  53.47999954
C     9.85000038  16.28999901  54.41999817
C     8.51000023  16.55999947  54.15999985
C     7.50999975  16.50000000  55.14999771
C     6.30000019  17.02000046  54.93000031
C     5.97000027  17.51000023  53.61000061
C     6.88000011  17.56000137  52.63999939
C     8.19999981  17.05999947  52.84000015
C    12.31999969  16.32999992  53.68000031
C    13.02000046  16.72999954  52.52999878
C    14.34999943  16.63999939  52.36000061
C     4.56999969  17.87999916  53.27999878
H     4.19485378  17.34205437  52.40937805
H     9.07999992  17.61999893  50.84000015
H    10.19000053  15.88999939  55.37000275
H     7.83999968  16.18000031  56.13999939
H     5.61999989  16.97000122  55.77000046
H     6.67999983  18.04999924  51.69000244
H    14.80999947  17.10000038  51.49000168
H     3.91000009  17.78000069  54.15000153
H     4.59000015  18.95000076  53.06999969
S    15.59000015  15.40999985  55.87999725
C    18.26000023  15.11999989  54.98000336
C    17.00000000  15.47999954  54.79999924
C    16.50000000  15.93000031  53.50999832
C    17.42000008  16.34000015  52.57999802
C    18.79999924  15.93000031  52.77000046
C    19.73999977  15.95000076  51.63999939
C    20.92000008  15.44000053  51.81999969
C    21.35000038  14.80999947  53.04999924
C    20.52999878  14.73000050  54.10999680
C    19.20999908  15.26000023  53.96999741
C    15.05000019  16.10000038  53.43999863
C    14.44000053  15.97000027  54.68999863
C    13.03999996  15.98000050  54.79000092
C    22.82999992  14.63999939  53.27000046
H    23.23060036  15.12348366  54.16099167
H    18.60000038  14.57999992  55.84999847
H    17.18000031  16.70999908  51.59000015
H    19.36000061  16.31000137  50.68000031
H    21.65999985  15.47000027  51.03000259
H    20.96999931  14.40999985  55.05000305
H    12.56999969  15.67000008  55.72000122
H    23.39999962  15.00000000  52.39999771
H    22.95000076  13.55999947  53.43999863
