96

S    12.42000008  16.92000008  44.13000107
C     9.72000027  17.40999985  44.86999893
C    10.97000027  16.82999992  45.12000275
C    11.35000038  16.31999969  46.39999771
C    10.29999924  16.15999985  47.37999725
C     9.01000023  16.61999893  47.04000092
C     7.92000008  16.63999939  48.02000046
C     6.61000013  17.13000107  47.77999878
C     6.34999990  17.82999992  46.52999878
C     7.37999964  17.95999908  45.61000061
C     8.69999981  17.38999939  45.84000015
C    12.79000092  16.20000076  46.59999847
C    13.45999908  16.52000046  45.43000031
C    14.86999989  16.54000092  45.45000076
C     4.94999981  18.35000038  46.09000397
H     4.59861422  17.71750641  45.27478790
H     9.43000031  17.86999893  43.93000031
H    10.42000008  15.80999947  48.40000153
H     8.15999985  16.27000046  49.02000046
H     5.82000017  16.90000153  48.48999786
H     7.18999958  18.48999977  44.68000031
H    15.43000031  16.81999969  44.55999756
H     4.17000008  18.30999947  46.86000061
H     5.13999987  19.38999939  45.77000046
S    15.82999992  15.48999977  49.06000137
C    18.57999992  15.59999943  48.54999924
C    17.30999947  15.71000004  48.08000183
C    17.01000023  16.03999901  46.72999954
C    18.07999992  16.25000000  45.79999924
C    19.43000031  15.97000027  46.22000122
C    20.52999878  15.95999908  45.31000137
C    21.77000046  15.67000008  45.81999969
C    22.04000092  15.36000061  47.18000031
C    20.97999954  15.36000061  48.06999969
C    19.63999939  15.67000008  47.61000061
C    15.60999966  16.20000076  46.59999847
C    14.88000011  15.84000015  47.71999741
C    13.52000046  15.81999969  47.75000000
C    23.40999985  14.89999962  47.54000092
H    23.77903557  15.45717239  48.40108871
H    18.76000023  15.42000008  49.61000061
H    17.78000069  16.45000076  44.77000427
H    20.35000038  16.27000046  44.27999878
H    22.60000038  15.55999947  45.13000107
H    21.15999985  15.03999901  49.09000015
H    12.93000031  15.51000023  48.60000229
H    24.11000061  14.92000008  46.70000076
H    23.28000069  13.86000061  47.87000275
S    11.85999966  16.97000122  50.86999893
C     9.21000004  17.34000015  51.62000275
C    10.44999981  16.93000031  51.93999863
C    10.77000046  16.43000031  53.26000214
C     9.81000042  16.52000046  54.26000214
C     8.53999996  16.94000053  53.94000244
C     7.57999992  17.00000000  55.00000000
C     6.32000017  17.54999924  54.77000427
C     5.96000004  17.76000023  53.47999954
C     6.84000015  17.79000092  52.42000198
C     8.19000053  17.38000107  52.62000275
C    12.18999958  16.28999901  53.43999863
C    12.89000034  16.50000000  52.22000122
C    14.27000046  16.54000092  52.11999893
C     4.55000019  18.09999847  53.20000076
H     4.13815880  17.46093559  52.41892242
H     8.97999954  17.65999985  50.59999847
H     9.89999962  16.04999924  55.24000168
H     7.92000008  16.59000015  55.94999695
H     5.55999994  17.80999947  55.51000214
H     6.65000010  18.23999977  51.45000076
H    14.70000076  16.84000015  51.17000198
H     3.89999986  17.97000122  54.08000183
H     4.44000006  19.13999939  52.87000275
S    15.32999992  15.75000000  55.90999985
C    18.02999878  15.39999962  55.26000214
C    16.79000092  15.81999969  54.84000397
C    16.44000053  16.13000107  53.48999786
C    17.53000069  16.28000069  52.63000107
C    18.77000046  15.92000008  53.04000092
C    19.82999992  16.04999924  52.12999725
C    21.09000015  15.65000057  52.51999664
C    21.38000107  15.11000061  53.79000092
C    20.38000107  15.03999901  54.68000031
C    19.09000015  15.51000023  54.36999893
C    14.98999977  16.21000099  53.29000092
C    14.35999966  16.03999901  54.51000214
C    12.96000004  16.06999969  54.58000183
C    22.82999992  14.68999958  54.05000305
H    23.20712090  15.29194450  54.87677002
H    18.20000076  14.88999939  56.19999695
H    17.29999924  16.57999992  51.60999680
H    19.63999939  16.46999931  51.13999939
H    21.81999969  15.51000023  51.72999954
H    20.55000114  14.67000008  55.68999863
H    12.60000038  15.95000076  55.59999847
H    23.42000008  14.78000069  53.13000107
H    22.73999977  13.61999989  54.26000214
