96

S    12.15999985  16.97999954  44.34000015
C     9.44000053  17.31999969  45.08999634
C    10.73999977  16.92000008  45.40000153
C    11.03999996  16.28000069  46.58000183
C    10.01999950  16.14999962  47.51999664
C     8.75000000  16.65999985  47.28000259
C     7.64999962  16.46999931  48.13999939
C     6.38000011  17.00000000  47.77000046
C     6.06999969  17.46999931  46.44000244
C     7.09999990  17.60000038  45.56999969
C     8.43999958  17.26000023  46.00999832
C    12.51999950  16.09000015  46.73999786
C    13.26000023  16.46000099  45.56999969
C    14.63000107  16.46000099  45.45000076
C     4.74000025  17.95999908  46.02000427
H     4.42626810  17.33253479  45.18576050
H     9.30999947  17.67000008  44.06999969
H    10.17000008  15.59999943  48.44999695
H     7.92000008  16.04999924  49.09999847
H     5.61999989  17.15999985  48.53000259
H     6.98999977  18.02999878  44.58000183
H    15.14000034  16.77000046  44.54999924
H     4.09000015  17.77000046  46.88000107
H     4.48000002  19.01000023  45.84000015
S    15.69000053  15.25000000  49.06999969
C    18.30999947  14.68999958  48.36000061
C    17.10000038  15.27999973  48.04000092
C    16.81999969  15.84000015  46.73999786
C    17.87999916  16.04999924  45.87999725
C    19.18000031  15.70000076  46.30000305
C    20.25000000  15.90999985  45.38999939
C    21.47000122  15.34999943  45.59999847
C    21.75000000  14.75999928  46.88999939
C    20.78000069  14.61999989  47.80000305
C    19.37000084  14.94999981  47.55000305
C    15.38000011  15.98000050  46.53999710
C    14.60000038  15.72999954  47.72999573
C    13.23999977  15.77999973  47.85999680
C    23.19000053  14.42999935  47.14000320
H    23.45964813  14.97658348  48.04368210
H    18.44000053  14.11000061  49.27000046
H    17.73999977  16.52000046  44.92000198
H    19.93000031  16.25000000  44.40999985
H    22.30999947  15.44000053  44.91000366
H    20.94000053  14.14999962  48.76999664
H    12.74000072  15.39999962  48.74000168
H    23.74000168  14.60999966  46.20999908
H    23.19999886  13.34000015  47.30999756
S    16.04999924  12.57999992  52.05999756
C    18.73999977  11.92000008  51.38999939
C    17.36999893  11.96000004  51.04999924
C    16.87000084  11.67000008  49.69999695
C    17.79999924  11.39999962  48.72000122
C    19.22000122  11.42000008  48.96999741
C    20.17999840  10.93000031  48.00000000
C    21.52000046  10.77999973  48.39000320
C    21.97000122  11.13999939  49.71000290
C    21.04000092  11.63000011  50.63999939
C    19.67000008  11.67000008  50.34999847
C    15.46000004  11.92999935  49.56999969
C    14.89999962  12.42000008  50.76000214
C    13.63000011  12.93000031  50.81999969
C    23.45999908  10.95000076  50.13000107
H    23.66096497  11.28015423  51.14917374
H    19.00000000  12.11999989  52.42000198
H    17.48999977  11.13000011  47.71999741
H    19.85999870  10.47999954  47.05999756
H    22.27999878  10.47000027  47.68000031
H    21.37000084  11.90000057  51.63999939
H    13.23999977  13.12000084  51.81999969
H    23.75999832   9.92999935  49.86000061
H    24.01000023  11.63000011  49.47000122
S    12.18999958  11.97000027  47.22000122
C     9.56999969  12.43999958  48.13000107
C    10.95999908  12.53999901  48.30999756
C    11.47999954  12.94000053  49.56999969
C    10.65999985  13.27999973  50.63000107
C     9.27999973  13.25000000  50.41999817
C     8.38999939  13.75000000  51.44000244
C     7.03999996  13.68000031  51.25000000
C     6.52999973  13.36999989  49.99000168
C     7.36000013  12.89000034  48.97999573
C     8.73999977  12.79999924  49.16999817
C    12.88000011  12.84000015  49.65000153
C    13.38000107  12.18000031  48.52000427
C    14.67000008  11.72999954  48.40999985
C     5.14999962  13.90999985  49.48999786
H     4.93289042  13.44683361  48.52748108
H     9.17000008  12.23000050  47.14000320
H    11.00999928  13.36999989  51.65999985
H     8.96000004  14.13000011  52.29000092
H     6.46000004  14.29999924  51.93000031
H     6.91999960  12.60000038  48.02999878
H    15.05000019  11.16000080  47.56999969
H     5.26000023  14.98999977  49.34000015
H     4.38000011  13.83999920  50.27000046
