96

S    12.43000031  16.39999962  44.45999908
C     9.77999973  16.59000015  45.22999573
C    11.05000019  16.39000130  45.52999878
C    11.46000004  16.21000099  46.86999893
C    10.55999947  16.17000008  47.91999817
C     9.22999954  16.54999924  47.60000229
C     8.21000004  16.60000038  48.50000000
C     6.91999960  17.01000023  48.18000031
C     6.60000038  17.27000046  46.81999969
C     7.57000017  17.30999947  45.91999817
C     8.84000015  16.88999939  46.25000000
C    12.88000011  15.95999908  46.93000031
C    13.57999992  16.03000069  45.72999954
C    15.00000000  15.90000057  45.45000076
C     5.19000006  17.61000061  46.39999771
H     4.80772448  16.84544945  45.72366333
H     9.36999989  16.55999947  44.22000122
H    10.85999966  15.80999947  48.90999603
H     8.42000008  16.23999977  49.51000214
H     6.15000010  17.02999878  48.95000076
H     7.37999964  17.61000061  44.89999771
H    15.44999981  16.13999939  44.48999786
H     4.55000019  17.48999977  47.28000259
H     4.96000004  18.60000038  46.00000000
S    16.25000000  15.51000023  49.09000015
C    18.96000099  15.26999950  48.20999908
C    17.64000130  15.40999985  47.95000076
C    17.19000053  15.57999992  46.60999680
C    18.07999992  15.59000015  45.58000183
C    19.43000031  15.47000027  45.89000320
C    20.42000008  15.50000000  44.79999924
C    21.76000214  15.36999893  45.02999878
C    22.18000031  15.19000053  46.40999603
C    21.22999954  15.18000031  47.48000336
C    19.89999962  15.31000042  47.19999695
C    15.77000046  15.72999954  46.63000107
C    15.07999992  15.73999977  47.90000153
C    13.71999931  15.78999996  48.02999878
C    23.68000031  15.03000069  46.70000076
H    23.91202164  15.11437130  47.76167297
H    19.22999954  15.05000019  49.23999786
H    17.75000000  15.71000004  44.54999924
H    20.13000107  15.59999943  43.75999832
H    22.44999886  15.22999954  44.20000076
H    21.42999840  14.89999962  48.50999832
H    13.35000038  15.65000057  49.05000305
H    24.18000031  15.78999996  46.09000397
H    23.98999977  14.06000042  46.30000305
S    16.10999870  13.30000019  51.91999817
C    18.71000099  12.71000004  51.10000229
C    17.39999962  12.57999992  50.89000320
C    16.81999969  12.17000008  49.62999725
C    17.72999954  11.76000023  48.66000366
C    19.11000061  11.80999947  48.88000107
C    20.00000000  11.10000038  47.98999786
C    21.31000137  11.03000069  48.29999924
C    21.86000061  11.52999973  49.58000183
C    20.98999977  12.23999977  50.45999908
C    19.64999962  12.38000011  50.10000229
C    15.39999962  12.36999989  49.56999969
C    14.86999989  12.97000027  50.68999863
C    13.57999992  13.40000057  50.77000046
C    23.28000069  11.13000011  50.02999878
H    23.55303001  11.58504581  50.98209381
H    19.10000038  12.97000027  52.08000183
H    17.30999947  11.18999958  47.83000183
H    19.62000084  10.64000034  47.08000183
H    22.00000000  10.50000000  47.63999939
H    21.15999985  12.28999996  51.52999878
H    13.19000053  13.78999901  51.70999908
H    23.26000023  10.03999901  50.08999634
H    24.03000069  11.36999989  49.26000214
S    12.03999996  11.79999924  47.48000336
C     9.40999985  12.53000069  48.20000076
C    10.72999954  12.57999992  48.47999954
C    11.21000099  13.15000057  49.68000031
C    10.39999962  13.57999992  50.66999817
C     8.97999954  13.63000011  50.37000275
C     8.11999989  14.25000000  51.31000137
C     6.77999973  14.35999966  51.00000000
C     6.30999994  13.85000038  49.78000259
C     7.13999987  13.30000019  48.82999802
C     8.47000027  13.17999935  49.08000183
C    12.71000004  13.15000057  49.65000153
C    13.21000004  12.41000080  48.61000061
C    14.53999996  12.10000038  48.50000000
C     4.86999989  14.06999969  49.34000015
H     4.64104605  13.46899509  48.45995712
H     8.98999977  12.13000107  47.28000259
H    10.86999989  14.01000023  51.55000305
H     8.53999996  14.70000076  52.19999695
H     6.15000010  14.96000099  51.65000153
H     6.75000000  12.97999954  47.85999680
H    14.93000031  11.67000008  47.58999634
H     4.71000004  15.14000034  49.18000031
H     4.18000031  13.75000000  50.13000107
