96

S    12.07999992  17.05999947  44.59999847
C     9.52000046  17.28999901  45.22999573
C    10.67999935  16.72000122  45.56999969
C    11.02000046  16.22999954  46.88000107
C     9.92999935  16.10000038  47.78999710
C     8.63000011  16.55999947  47.41000366
C     7.51999950  16.36000061  48.27999878
C     6.32000017  16.98999977  47.90999985
C     6.10000038  17.56999969  46.60999680
C     7.17000008  17.61000061  45.70000076
C     8.45000076  17.21999931  46.13999939
C    12.46999931  15.98999977  46.98999786
C    13.12000084  16.43000031  45.84000015
C    14.48999977  16.45000076  45.77000046
C     4.67999983  17.97000122  46.14999771
H     4.35854340  17.42492294  45.26249695
H     9.30000019  17.77000046  44.29000092
H    10.07999992  15.64000034  48.75999832
H     7.76000023  15.93999958  49.25000000
H     5.42999983  16.92000008  48.52000427
H     6.97000027  18.04999924  44.72999954
H    15.13000011  16.79000092  44.97000122
H     3.93000007  17.79999924  46.93000031
H     4.67000008  19.03000069  45.84999847
S    15.65000057  15.29999924  49.36999893
C    18.38000107  15.06000042  48.67000198
C    17.10000038  15.52000046  48.31999969
C    16.69999886  15.98000050  47.02000046
C    17.70000076  16.13999939  46.11999893
C    19.00000000  15.72000027  46.39999771
C    20.02000046  15.86999989  45.40999985
C    21.27000046  15.31000042  45.63000107
C    21.63999939  14.61999989  46.84999847
C    20.62999916  14.52000046  47.85999680
C    19.38999939  15.17000008  47.70999908
C    15.26000023  16.03000069  46.86000061
C    14.53999996  15.62000084  48.01000214
C    13.17000008  15.67999935  48.13999939
C    23.08000183  14.21000004  47.19999695
H    23.44715881  14.75393867  48.07030106
H    18.52000046  14.42999935  49.54000092
H    17.39999962  16.34000015  45.08999634
H    19.79999924  16.34000015  44.45999908
H    21.97999954  15.55999947  44.84000397
H    20.90999985  14.09000015  48.81999969
H    12.69000053  15.48999977  49.09999847
H    23.81000137  14.40000057  46.38999939
H    23.15999985  13.12999916  47.41000366
S    12.02000046  17.06999969  50.73999786
C     9.30000019  17.28000069  51.52000046
C    10.57999992  16.98999977  51.81000137
C    10.93000031  16.46999931  53.09000015
C     9.94999981  16.31999969  54.03999710
C     8.64999962  16.65999985  53.75000000
C     7.64999962  16.61999893  54.75999832
C     6.34000015  17.04000092  54.50000000
C     6.00000000  17.57999992  53.20999908
C     6.90000010  17.59000015  52.15999985
C     8.23999977  17.04000092  52.39999771
C    12.30999947  16.38000107  53.29999924
C    13.04999924  16.72999954  52.14000320
C    14.48999977  16.70999908  52.06999969
C     4.57999992  17.94999886  52.90999985
H     4.25970316  17.49867249  51.97095108
H     9.17000008  17.90999985  50.63999939
H    10.15999985  15.85000038  55.00000000
H     7.86999989  16.25000000  55.76000214
H     5.61999989  17.13000107  55.31000137
H     6.71999979  18.20000076  51.27999878
H    15.03999901  17.12000084  51.23000336
H     3.94000006  17.61999893  53.74000168
H     4.61999989  19.04000092  52.80000305
S    15.36999893  15.32999992  55.72000122
C    18.00000000  14.89999962  55.11000061
C    16.81999969  15.46000004  54.79000092
C    16.55999947  16.09000015  53.48999786
C    17.61999893  16.31000137  52.67000198
C    18.81999969  15.67999935  52.93000031
C    19.84000015  15.85000038  52.02000046
C    21.15999985  15.47999954  52.25999832
C    21.44000053  14.88000011  53.46000290
C    20.45999908  14.70000076  54.40000153
C    19.05999947  14.98999977  54.15999985
C    15.17000008  16.26000023  53.25000000
C    14.37999916  15.82999992  54.40000153
C    12.98999977  15.95000076  54.43999863
C    22.86000061  14.73999977  53.81999969
H    23.04013062  14.87163353  54.88692474
H    18.23999977  14.39000034  56.03000259
H    17.46999931  16.80999947  51.72000122
H    19.63000107  16.56999969  51.24000168
H    21.90000153  15.88999939  51.58000183
H    20.68000031  14.47999954  55.44000244
H    12.43999958  15.67999935  55.34000015
H    23.42000008  15.52999973  53.30999756
H    23.29999924  13.80000019  53.47000122
