96

S    12.43999958  16.72999954  44.23999786
C     9.81000042  17.38999939  44.98000336
C    11.10999966  16.97999954  45.33000183
C    11.39000034  16.50000000  46.65999985
C    10.26999950  16.36999893  47.54000092
C     8.98999977  16.87000084  47.23999786
C     7.96000004  16.90999985  48.20000076
C     6.71999979  17.43999863  47.94000244
C     6.48000002  17.89999962  46.65999985
C     7.40999985  17.85000038  45.66999817
C     8.75000000  17.38999939  45.93000031
C    12.79000092  16.21000099  46.72999954
C    13.48000050  16.46999931  45.52000046
C    14.86999989  16.42000008  45.47000122
C     5.09000015  18.12000084  46.17000198
H     4.79546642  17.58983994  45.26430893
H     9.63000011  18.00000000  44.09000015
H    10.46000004  15.92000008  48.50999832
H     8.11999989  16.27000046  49.06999969
H     5.91000032  17.22999954  48.62999725
H     7.23000002  18.22999954  44.66999817
H    15.40999985  16.88999939  44.65000153
H     4.41000032  17.75000000  46.95000076
H     4.85000038  19.19000053  46.12999725
S    15.92000008  15.18000031  49.08000183
C    18.63000107  15.34000015  48.41999817
C    17.31999969  15.62999916  48.04000092
C    17.02000046  15.98000050  46.76000214
C    18.04000092  16.10000038  45.81999969
C    19.36000061  15.77999973  46.18000031
C    20.50000000  15.62999916  45.24000168
C    21.67000008  15.15999985  45.63999939
C    21.94999886  14.93000031  47.00000000
C    21.04000092  15.10000038  47.94000244
C    19.67000008  15.47000027  47.55000305
C    15.54999924  16.07999992  46.63999939
C    14.88000011  15.57999992  47.75000000
C    13.52000046  15.76000023  47.84999847
C    23.36000061  14.59000015  47.29999924
H    23.67240524  14.98760509  48.26561356
H    18.70000076  14.85999966  49.38999939
H    17.76000023  16.36999893  44.80999756
H    20.48999977  15.90999985  44.19000244
H    22.55000114  15.03999901  45.00999832
H    21.24000168  14.80999947  48.96999741
H    12.96000004  15.62999916  48.76999664
H    23.87000084  15.06999969  46.45999908
H    23.52000046  13.50999928  47.18999863
S    11.97000027  17.07999992  50.77000046
C     9.35000038  17.45000076  51.46999741
C    10.55999947  16.92000008  51.81999969
C    10.97000027  16.55999947  53.13999939
C    10.01000023  16.56999969  54.13000107
C     8.71999931  17.04000092  53.81000137
C     7.76000023  17.01000023  54.82999802
C     6.42000008  17.29999924  54.54000092
C     6.11000013  17.79999924  53.18999863
C     7.07999992  18.00000000  52.25000000
C     8.39999962  17.47999954  52.50000000
C    12.39999962  16.43000031  53.27000046
C    13.09000015  16.64999962  52.09000015
C    14.47000027  16.65999985  51.97000122
C     4.79999971  18.23999977  52.90000153
H     4.47142029  17.66673279  52.03310776
H     9.36999989  18.09000015  50.59000015
H    10.31999969  16.13999939  55.07999802
H     8.02999973  16.59000015  55.79999924
H     5.59999990  17.20000076  55.24000168
H     6.89000034  18.47999954  51.29000092
H    14.98000050  16.86000061  51.03000259
H     4.13999987  17.89999962  53.70999908
H     4.61999989  19.31999969  52.84999847
S    15.64000034  16.05999947  55.72999954
C    18.30000114  15.53999996  54.99000168
C    17.05999947  16.00000000  54.65999985
C    16.76000023  16.28999901  53.27999878
C    17.77000046  16.31999969  52.31999969
C    19.10000038  15.98999977  52.65999603
C    20.17000008  15.86999989  51.76000214
C    21.37000084  15.29000092  52.12999725
C    21.61999893  15.06999969  53.47999954
C    20.65999985  15.22999954  54.40000153
C    19.34000015  15.65999985  54.05000305
C    15.26000023  16.36000061  53.09000015
C    14.56999969  16.21999931  54.36999893
C    13.17000008  16.28999901  54.47000122
C    23.02000046  14.72000027  53.93000031
H    23.31542206  15.13499832  54.89364243
H    18.38999939  15.21000004  56.02000427
H    17.52000046  16.31999969  51.25999832
H    19.93000031  16.14999962  50.73999786
H    22.13000107  15.01000023  51.40999603
H    20.73999786  14.88000011  55.43000031
H    12.76000023  16.21000099  55.47999954
H    23.67000198  15.19000053  53.18000031
H    23.19000053  13.63999939  53.95000076
