96

S    12.28000069  17.30999947  44.33000183
C     9.59999943  17.71999931  45.11000061
C    10.88000107  17.20999908  45.40999985
C    11.19999981  16.62999916  46.70999908
C    10.25000000  16.52000046  47.64999771
C     8.93999958  17.06999969  47.43999863
C     7.88000011  17.13000107  48.41999817
C     6.63999987  17.53999901  48.09999847
C     6.37000036  18.01000023  46.79000092
C     7.37999964  18.22999954  45.93000031
C     8.69999981  17.75000000  46.14999771
C    12.65999985  16.67000008  46.84000015
C    13.27000046  16.92000008  45.61999893
C    14.65000057  16.79000092  45.52000046
C     4.98000002  18.30999947  46.26999664
H     4.70523882  17.74562454  45.37887955
H     9.30999947  18.15999985  44.15999985
H    10.57999992  16.17000008  48.61999893
H     8.17000008  16.60000038  49.33000183
H     5.82000017  17.42000008  48.81000137
H     7.23000002  18.59000015  44.91000366
H    15.14000034  17.14999962  44.61999893
H     4.28999996  18.05999947  47.09000015
H     4.86000013  19.40000153  46.17000198
S    15.85000038  15.77999973  49.13999939
C    18.45999908  15.36000061  48.43999863
C    17.20000076  15.84000015  48.11000061
C    16.84000015  16.18999863  46.81000137
C    17.80999947  16.31000137  45.86000061
C    19.10000038  15.88999939  46.11999893
C    20.12000084  15.84000015  45.15999603
C    21.42000008  15.47000027  45.54999924
C    21.68000031  15.03000069  46.86999893
C    20.65999985  14.94999981  47.72999573
C    19.43000031  15.48999977  47.47000122
C    15.39999962  16.45000076  46.62000275
C    14.73000050  16.21000099  47.84000015
C    13.40000057  16.40999985  47.97999954
C    23.08000183  14.55000019  47.22999954
H    23.37296295  14.96443558  48.19463348
H    18.75000000  14.98999977  49.41999817
H    17.56999969  16.69000053  44.86999893
H    19.88000107  16.26000023  44.18000031
H    22.23999977  15.59000015  44.85000229
H    20.86000061  14.42000008  48.66000366
H    12.90999985  16.27000046  48.94000244
H    23.71999931  14.91000080  46.40999603
H    23.02999878  13.47000027  47.37999725
S    11.78999996  17.21999931  51.02000427
C     9.18000031  17.67000008  51.84999847
C    10.40999985  17.21999931  52.14000320
C    10.72999954  16.79000092  53.43000031
C     9.77999973  16.77000046  54.45999908
C     8.46000004  17.20000076  54.15999985
C     7.39000034  17.11000061  55.18000031
C     6.17999983  17.56000137  54.81999969
C     5.95000029  18.02999878  53.47000122
C     6.88000011  17.98999977  52.50000000
C     8.14000034  17.50000000  52.81000137
C    12.15999985  16.68000031  53.60000229
C    12.89999962  16.82999992  52.43000031
C    14.27999973  16.63999939  52.37999725
C     4.55000019  18.42000008  53.11000061
H     4.24469566  17.79551315  52.27041245
H     9.04999924  18.15000153  50.87999725
H     9.96000004  16.39999962  55.45999908
H     7.53000021  16.81999969  56.22000122
H     5.42000008  17.71000099  55.58000183
H     6.74000025  18.47999954  51.53999710
H    14.78999996  16.92000008  51.45999908
H     3.96000004  18.38999939  54.02999878
H     4.48000002  19.47999954  52.84000015
S    15.36000061  15.98000050  56.14999771
C    18.05999947  15.48999977  55.27999878
C    16.77999878  15.88999939  54.97000122
C    16.35000038  16.29999924  53.62999725
C    17.31999969  16.46000099  52.67000198
C    18.64999962  16.07999992  52.90999985
C    19.72999954  16.01000023  52.00000000
C    20.97999954  15.65000057  52.29999924
C    21.28000069  15.21000004  53.61000061
C    20.26000023  15.17000008  54.52999878
C    18.96000099  15.64000034  54.25000000
C    14.88999939  16.44000053  53.57999802
C    14.23999977  16.28000069  54.80999756
C    12.86999893  16.35000038  54.79000092
C    22.70000076  14.68999958  54.00000000
H    23.02421951  15.18337822  54.91627502
H    18.29000092  14.89999962  56.16000366
H    17.10000038  16.79000092  51.65999985
H    19.51000023  16.46999931  51.04000092
H    21.78999901  15.76000023  51.59000015
H    20.55000114  14.80000019  55.51000214
H    12.38000011  16.20000076  55.75000000
H    23.36999893  14.93999958  53.16999817
H    22.79999924  13.60999966  54.15999985
