96

S    12.27000046  16.31999969  44.06000137
C     9.52999973  16.87999916  44.75999832
C    10.76000023  16.28000069  45.07999802
C    11.09000015  15.98000050  46.39999771
C    10.13000011  16.02000046  47.41000366
C     8.80000019  16.42000008  47.08000183
C     7.73999977  16.21999931  47.97999954
C     6.44999981  16.53000069  47.65999603
C     6.15999985  17.22999954  46.39999771
C     7.11000013  17.30999947  45.50000000
C     8.46000004  16.84000015  45.68999863
C    12.56000042  15.90999985  46.59000015
C    13.30000019  16.10999870  45.41999817
C    14.68999958  16.13000107  45.40000153
C     4.69000006  17.64999962  46.07999802
H     4.32559299  17.09223557  45.21732330
H     9.46000004  17.36999893  43.80000305
H    10.31000042  15.78999996  48.46000290
H     7.86000013  15.72999954  48.94000244
H     5.65000010  16.18999863  48.29999924
H     6.88000011  17.53999901  44.45999908
H    15.31000042  16.14999962  44.50000000
H     4.02999973  17.64000130  46.95999908
H     4.75000000  18.68999863  45.75000000
S    15.77999973  15.14999962  49.13999939
C    18.51000023  14.96000099  48.37999725
C    17.25000000  15.34000015  48.08000183
C    16.86000061  15.77000046  46.73999786
C    17.79999924  15.50000000  45.73999786
C    19.18000031  15.08999920  46.04999924
C    20.15999985  14.93999958  45.06000137
C    21.45000076  14.55999947  45.38999939
C    21.83000183  14.39000034  46.73999786
C    20.84000015  14.40999985  47.72999573
C    19.55000114  14.84000015  47.42000198
C    15.46000004  15.98000050  46.56999969
C    14.75999928  15.75000000  47.81000137
C    13.35000038  15.69000053  47.81000137
C    23.25000000  14.09000015  47.11999893
H    23.51382637  14.46375275  48.10934448
H    18.78000069  14.68000031  49.40000153
H    17.48999977  15.67999935  44.71000290
H    19.93999863  15.26999950  44.05000305
H    22.26000023  14.50000000  44.65999985
H    21.14999962  14.06999969  48.70999908
H    12.88000011  15.31000042  48.69999695
H    23.90999985  14.47000027  46.32999802
H    23.35000038  13.00000000  47.18999863
S    16.06999969  12.72999954  51.97999954
C    18.71999931  12.23000050  51.17000198
C    17.36999893  12.13999939  50.89000320
C    16.86000061  11.61999893  49.65000153
C    17.70000076  10.97000027  48.75999832
C    19.09000015  11.17000008  49.02999878
C    20.03000069  10.69000053  48.06000137
C    21.34000015  10.84000015  48.29000092
C    21.84000015  11.11999989  49.65000153
C    20.97999954  11.69000053  50.54999924
C    19.57999992  11.73999977  50.24000168
C    15.39999962  11.79999924  49.58000183
C    14.88999939  12.25000000  50.84000015
C    13.50999928  12.56000042  51.04999924
C    23.18000031  10.70000076  50.12000275
H    23.48998833  11.04521370  51.10632706
H    19.04000092  12.69000053  52.09999847
H    17.39999962  10.57999992  47.78999710
H    19.65999985  10.21000004  47.15999985
H    22.00000000  10.32999992  47.60000229
H    21.31000137  12.10000038  51.51000214
H    13.17000008  13.07999992  51.93999863
H    23.19999886   9.61000061  50.00999832
H    23.78000069  11.03999996  49.27000046
S    11.87000084  11.75000000  47.47000122
C     9.31999969  12.46999931  48.34999847
C    10.65000057  12.32999992  48.61000061
C    11.21000099  12.61999989  49.92000198
C    10.46000004  13.12000084  50.94999695
C     9.02999973  13.20000076  50.72999954
C     8.14000034  13.78999901  51.65000153
C     6.84000015  13.92000008  51.42000198
C     6.24000025  13.43000031  50.15999603
C     7.11000013  12.97999954  49.19000244
C     8.48999977  12.84999943  49.45000076
C    12.64999962  12.30000019  50.00000000
C    13.12000084  11.73999977  48.75999832
C    14.50000000  11.46999931  48.63999939
C     4.86999989  13.75000000  49.82999802
H     4.73787451  13.41620922  48.80081177
H     8.85999966  12.13000107  47.43000031
H    10.92000008  13.50000000  51.86000061
H     8.60999966  14.17000008  52.55000305
H     6.25999975  14.47000027  52.14000320
H     6.70000029  12.67000008  48.22999954
H    14.88000011  10.95999908  47.76000214
H     4.74000025  14.80000019  50.12000275
H     4.18000031  13.25000000  50.52000046
