96

S    12.15000057  17.13000107  44.27999878
C     9.42000008  17.30999947  44.79000092
C    10.67000008  17.05999947  45.27000046
C    10.95999908  16.84999847  46.66999817
C     9.86999989  16.67000008  47.50999832
C     8.59000015  16.90999985  47.05999756
C     7.49000025  16.87999916  48.04999924
C     6.32000017  17.35999870  47.67000198
C     6.10000038  17.72999954  46.33999634
C     7.07999992  17.60000038  45.40000153
C     8.38000011  17.26000023  45.70999908
C    12.41000080  16.67000008  46.83000183
C    13.15000057  16.81999969  45.65000153
C    14.52999973  16.82999992  45.59999847
C     4.76000023  18.19000053  45.84999847
H     4.45050383  17.57100677  45.00788116
H     9.19000053  17.68000031  43.79000092
H     9.88000011  16.31000137  48.54000092
H     7.79999971  16.64999962  49.06999969
H     5.63000011  17.61999893  48.47000122
H     6.90999985  17.79999924  44.34999847
H    15.11999989  17.00000000  44.71000290
H     4.15000010  18.15000153  46.75000000
H     4.74000025  19.27000046  45.65999985
S    15.62000084  16.04999924  49.22999954
C    18.38999939  15.71000004  48.36000061
C    17.11000061  16.13999939  48.11999893
C    16.70999908  16.53000069  46.81000137
C    17.68000031  16.52000046  45.77999878
C    18.97999954  15.93000031  45.86000061
C    19.93000031  15.86999989  44.79999924
C    21.21999931  15.47000027  45.18000031
C    21.59000015  15.11999989  46.47999573
C    20.63999939  15.08999920  47.49000168
C    19.29999924  15.55999947  47.25999832
C    15.26000023  16.57999992  46.72000122
C    14.52000046  16.42000008  47.91999817
C    13.09999943  16.36000061  48.01000214
C    23.05000114  14.96000099  46.84000015
H    23.28856277  15.32868767  47.83762741
H    18.67000008  15.52999973  49.38999939
H    17.43000031  16.97999954  44.82999802
H    19.69000053  16.22999954  43.80000305
H    21.97999954  15.52000046  44.40000153
H    20.86999893  15.00000000  48.54999924
H    12.61999989  16.05999947  48.93000031
H    23.75000000  15.29000092  46.06999969
H    23.23999786  13.88000011  46.81999969
S    15.93000031  13.38000107  52.28000259
C    18.61999893  12.76000023  51.56999969
C    17.28000069  12.76999950  51.25000000
C    16.76000023  12.48999977  49.97000122
C    17.70000076  12.05000019  49.01000214
C    19.06999969  11.90999985  49.26000214
C    19.90999985  11.28999901  48.30999756
C    21.25000000  11.19999981  48.57999802
C    21.80999947  11.75000000  49.81999969
C    20.95999908  12.31999969  50.68000031
C    19.55000114  12.35999966  50.50000000
C    15.31999969  12.76999950  49.79999924
C    14.77000046  13.30000019  50.94999695
C    13.45999908  13.68999958  51.05999756
C    23.26000023  11.51999950  50.08999634
H    23.53365707  11.71444035  51.12701416
H    18.86999893  13.17999935  52.55000305
H    17.42000008  11.63000011  48.04999924
H    19.40999985  10.85000038  47.44999695
H    21.84999847  10.72000027  47.81000137
H    21.28000069  12.75000000  51.63000107
H    12.98999977  14.06000042  51.97000122
H    23.54000092  10.53999996  49.68000031
H    23.85000038  12.10999966  49.36999893
S    12.10000038  12.64999962  47.43000031
C     9.43000031  12.92000008  48.26000214
C    10.77000046  13.05999947  48.50999832
C    11.28000069  13.56999969  49.75999832
C    10.32999992  14.15999985  50.59000015
C     8.96000004  14.09000015  50.33000183
C     8.03999996  14.52000046  51.29000092
C     6.67000008  14.52000046  51.13999939
C     6.11000013  13.93000031  49.88999939
C     6.98000002  13.28999996  49.02999878
C     8.42000008  13.43999958  49.20000076
C    12.69000053  13.43000031  49.88999939
C    13.28999996  13.00000000  48.72000122
C    14.60999966  12.64000034  48.64999771
C     4.59999990  13.94000053  49.47000122
H     4.35091591  13.53706932  48.48831558
H     9.19000053  12.30000019  47.39999771
H    10.67999935  14.44000053  51.58000183
H     8.45000076  14.88999939  52.22000122
H     6.11000013  15.13000011  51.83000183
H     6.67000008  12.79000092  48.11999893
H    15.01999950  12.30999947  47.70000076
H     4.30000019  15.00000000  49.51000214
H     3.95000005  13.48999977  50.24000168
