96

S    12.07999992  17.05999947  44.59999847
C     9.52000046  17.28999901  45.22999573
C    10.67999935  16.72000122  45.56999969
C    11.02000046  16.22999954  46.88000107
C     9.92999935  16.10000038  47.78999710
C     8.63000011  16.55999947  47.41000366
C     7.51999950  16.36000061  48.27999878
C     6.32000017  16.98999977  47.90999985
C     6.10000038  17.56999969  46.60999680
C     7.17000008  17.61000061  45.70000076
C     8.45000076  17.21999931  46.13999939
C    12.46999931  15.98999977  46.98999786
C    13.12000084  16.43000031  45.84000015
C    14.48999977  16.45000076  45.77000046
C     4.67999983  17.97000122  46.14999771
H     4.35854340  17.42492294  45.26249695
H     9.30000019  17.77000046  44.29000092
H    10.07999992  15.64000034  48.75999832
H     7.76000023  15.93999958  49.25000000
H     5.42999983  16.92000008  48.52000427
H     6.97000027  18.04999924  44.72999954
H    15.13000011  16.79000092  44.97000122
H     3.93000007  17.79999924  46.93000031
H     4.67000008  19.03000069  45.84999847
S    15.65000057  15.29999924  49.36999893
C    18.38000107  15.06000042  48.67000198
C    17.10000038  15.52000046  48.31999969
C    16.69999886  15.98000050  47.02000046
C    17.70000076  16.13999939  46.11999893
C    19.00000000  15.72000027  46.39999771
C    20.02000046  15.86999989  45.40999985
C    21.27000046  15.31000042  45.63000107
C    21.63999939  14.61999989  46.84999847
C    20.62999916  14.52000046  47.85999680
C    19.38999939  15.17000008  47.70999908
C    15.26000023  16.03000069  46.86000061
C    14.53999996  15.62000084  48.01000214
C    13.17000008  15.67999935  48.13999939
C    23.08000183  14.21000004  47.19999695
H    23.44715881  14.75393867  48.07030106
H    18.52000046  14.42999935  49.54000092
H    17.39999962  16.34000015  45.08999634
H    19.79999924  16.34000015  44.45999908
H    21.97999954  15.55999947  44.84000397
H    20.90999985  14.09000015  48.81999969
H    12.69000053  15.48999977  49.09999847
H    23.81000137  14.40000057  46.38999939
H    23.15999985  13.12999916  47.41000366
S    15.72999954  12.88000011  52.19999695
C    18.27999878  12.05000019  51.56000137
C    16.98999977  12.20000076  51.23000336
C    16.51000023  11.72999954  49.97000122
C    17.39999962  11.35000038  49.02000046
C    18.71999931  11.13000011  49.27000046
C    19.63999939  10.80999947  48.22999954
C    21.04000092  10.72000027  48.50999832
C    21.55999947  11.10000038  49.81999969
C    20.69999886  11.56000042  50.86000061
C    19.25000000  11.47999954  50.58000183
C    15.08999920  12.00000000  49.82999802
C    14.55000019  12.56000042  50.97999954
C    13.23999977  12.98999977  51.02000427
C    23.05999947  11.07999992  50.00999832
H    23.31751633  11.29337120  51.04742813
H    18.72999954  12.50000000  52.43999863
H    17.02999878  11.23999977  48.01000214
H    19.18000031  10.46000004  47.30999756
H    21.73999977  10.34999943  47.77000046
H    21.07999992  11.78999996  51.84999847
H    12.69999981  13.36999989  51.88999939
H    23.38999939  10.11999989  49.59999847
H    23.59000015  11.87999916  49.47999954
S    11.77999973  11.69999981  47.48000336
C     9.19000053  12.34000015  48.37999725
C    10.48999977  12.30999947  48.60000229
C    11.05000019  12.84999943  49.79000092
C    10.21999931  13.14000034  50.84999847
C     8.84000015  13.25000000  50.61000061
C     7.86999989  13.78000069  51.51000214
C     6.56000042  13.97999954  51.31000137
C     6.07999992  13.59000015  50.06999969
C     6.94000006  13.03999996  49.09999847
C     8.30000019  12.79000092  49.34999847
C    12.48999977  12.76999950  49.84000397
C    12.98999977  12.17000008  48.68000031
C    14.29999924  11.87000084  48.66000366
C     4.69999981  14.04000092  49.65999985
H     4.39727879  13.78773212  48.64372253
H     8.97000027  12.15000057  47.34000397
H    10.67000008  13.47000027  51.77999878
H     8.25000000  14.19999981  52.43000031
H     6.01000023  14.63000107  51.97999954
H     6.63000011  12.89000034  48.06999969
H    14.68000031  11.42000008  47.75000000
H     4.73000002  15.13000011  49.71000290
H     4.03999996  13.50999928  50.37000275
