96

S    12.35000038  16.80999947  44.08000183
C     9.71000004  17.15999985  44.79999924
C    10.92000008  16.63999939  45.12000275
C    11.31000042  16.31000137  46.46999741
C    10.32999992  16.10999870  47.38999939
C     9.00000000  16.39000130  47.09999847
C     8.05000019  16.38000107  48.15000153
C     6.84000015  16.94000053  47.94000244
C     6.51000023  17.51000023  46.66999817
C     7.40999985  17.54999924  45.65999985
C     8.69999981  17.05000114  45.80999756
C    12.72999954  16.31000137  46.63999939
C    13.43999958  16.60000038  45.40999985
C    14.80000019  16.69000053  45.31000137
C     5.13999987  17.94000053  46.36000061
H     4.69639587  17.34148788  45.56432724
H     9.51000023  17.65999985  43.86000061
H    10.71000004  15.90000057  48.39000320
H     8.34000015  16.11999893  49.16999817
H     6.12999964  17.13999939  48.74000168
H     7.11999989  18.05999947  44.73999786
H    15.26000023  16.82999992  44.34000015
H     4.61999989  17.89999962  47.32999802
H     5.32999992  18.96999931  46.04000092
S    15.92000008  15.43000031  48.95000076
C    18.55999947  15.24000072  48.22999954
C    17.29999924  15.52999973  47.88000107
C    17.00000000  16.09000015  46.63000107
C    17.97999954  16.14999962  45.59999847
C    19.29999924  15.90000057  45.90000153
C    20.36999893  16.07999992  44.99000168
C    21.60000038  15.65000057  45.33000183
C    21.90999985  15.07999992  46.55000305
C    20.92000008  14.85999966  47.48000336
C    19.60000038  15.34000015  47.25999832
C    15.55999947  16.34000015  46.45999908
C    14.88000011  16.00000000  47.65999603
C    13.45000076  16.00000000  47.71999741
C    23.32999992  14.68000031  46.95999908
H    23.71458244  15.38999844  47.69218445
H    18.75000000  14.73000050  49.16999817
H    17.64000130  16.47999954  44.61999893
H    20.02000046  16.42000008  44.02000046
H    22.44999886  15.70000076  44.65999985
H    21.04000092  14.23999977  48.36000061
H    13.05999947  15.62000084  48.66000366
H    23.85999870  14.72000027  46.00000000
H    23.38999939  13.63000011  47.27000427
S    11.97000027  17.05999947  51.11999893
C     9.25000000  17.22999954  51.93000031
C    10.50000000  16.69999886  52.18000031
C    10.86999989  16.23999977  53.50999832
C     9.90999985  16.21999931  54.51000214
C     8.56999969  16.63999939  54.22000122
C     7.44000006  16.51000023  55.13999939
C     6.15999985  17.00000000  54.85000229
C     5.89999962  17.56000137  53.56999969
C     6.94000006  17.61000061  52.67000198
C     8.23999977  17.20000076  52.95999908
C    12.34000015  16.39999962  53.72000122
C    13.07999992  16.77999878  52.49000168
C    14.47000027  16.56999969  52.42000198
C     4.53999996  17.94000053  53.11999893
H     4.21966791  17.47406197  52.18812561
H     9.01000023  17.64999962  50.94999695
H    10.22999954  15.88999939  55.48999786
H     7.71000004  16.20000076  56.14999771
H     5.33999968  16.77000046  55.52999878
H     6.71000004  17.90999985  51.65000153
H    15.01000023  16.45000076  51.47999573
H     3.79999995  17.68000031  53.88999939
H     4.53000021  19.02000046  52.95999908
S    15.47999954  15.85000038  56.24000168
C    18.15999985  15.22999954  55.45000076
C    16.84999847  15.57999992  55.20000076
C    16.51000023  15.92000008  53.83999634
C    17.45000076  15.82999992  52.93000031
C    18.76000023  15.60999966  53.11000061
C    19.72999954  15.47000027  52.04000092
C    21.02000046  15.14999962  52.42000198
C    21.42000008  14.93999958  53.74000168
C    20.52000046  15.15999985  54.79000092
C    19.17000008  15.47000027  54.45000076
C    15.14000034  16.38000107  53.61000061
C    14.44000053  16.31000137  54.85000229
C    13.05999947  16.21999931  54.89999771
C    22.79000092  14.46000004  54.02000046
H    23.18226051  15.07018280  54.83357620
H    18.39999962  14.93999958  56.46999741
H    17.10000038  16.06999969  51.91999817
H    19.42000008  15.60999966  51.00999832
H    21.68000031  14.94999981  51.58000183
H    20.69000053  14.65000057  55.72999954
H    12.53999901  15.98999977  55.83000183
H    23.44000053  14.63999939  53.15999985
H    22.72000122  13.38000107  54.19000244
