96

S    12.23000050  17.00000000  44.27999878
C     9.52000046  17.45000076  45.08999634
C    10.75000000  16.92000008  45.33000183
C    11.13000011  16.31999969  46.65000153
C    10.13000011  16.18000031  47.61000061
C     8.86999989  16.73999977  47.35000229
C     7.81000042  16.60000038  48.27000046
C     6.53999996  17.04000092  47.95000076
C     6.25000000  17.68000031  46.77999878
C     7.23999977  17.94000053  45.91999817
C     8.55000019  17.39999962  46.12999725
C    12.56999969  16.10000038  46.79000092
C    13.27999973  16.36999893  45.52999878
C    14.68000031  16.31000137  45.51000214
C     4.76999998  17.98999977  46.43000031
H     4.44389248  17.50792694  45.50839233
H     9.18000031  17.71999931  44.09000015
H    10.19999981  15.52999973  48.47999954
H     8.05999947  16.23999977  49.26000214
H     5.68000031  16.92000008  48.61000061
H     6.96000004  18.34000015  44.94999695
H    15.14999962  16.39999962  44.52999878
H     4.23000002  17.59000015  47.29999924
H     4.50000000  19.04000092  46.30000305
S    15.71000004  15.07999992  49.19000244
C    18.40999985  14.85999966  48.44999695
C    17.13000107  15.26999950  48.06999969
C    16.79000092  15.64000034  46.70999908
C    17.84000015  15.80999947  45.77000046
C    19.14999962  15.47999954  46.16000366
C    20.28000069  15.48999977  45.24000168
C    21.50000000  14.98000050  45.68000031
C    21.75000000  14.77000046  46.98999786
C    20.75000000  14.72000027  47.95000076
C    19.43000031  14.96999931  47.50999832
C    15.36000061  15.86999989  46.63999939
C    14.67000008  15.64000034  47.90999985
C    13.28999996  15.80000019  47.95000076
C    23.01000214  14.27999973  47.37999725
H    23.48751640  14.85156918  48.17585373
H    18.55999947  14.46000004  49.43999863
H    17.53999901  16.18000031  44.79000092
H    20.09000015  15.77999973  44.20999908
H    22.27999878  14.80000019  44.93999863
H    20.94000053  14.42999935  48.97999573
H    12.76999950  15.65000057  48.88999939
H    23.61999893  14.25000000  46.45999908
H    22.93000031  13.23999977  47.72999573
S    16.04999924  12.35000038  52.14000320
C    18.71000099  12.05999947  51.25000000
C    17.38000107  11.95000076  51.03000259
C    16.81999969  11.61000061  49.72999954
C    17.73999977  11.26000023  48.77999878
C    19.04999924  11.28000069  48.93000031
C    19.93999863  10.86999989  47.94000244
C    21.27000046  10.77999973  48.22000122
C    21.76000214  11.02000046  49.54000092
C    20.90999985  11.44999981  50.47000122
C    19.55000114  11.64000034  50.21999741
C    15.39999962  11.87000084  49.64000320
C    14.86999989  12.25999928  50.84999847
C    13.59000015  12.58999920  51.10000229
C    23.25000000  10.73999977  49.81999969
H    23.53959656  11.14967346  50.78767776
H    19.19999886  12.55000019  52.08000183
H    17.32999992  10.93000031  47.81999969
H    19.63000107  10.60999966  46.93000031
H    21.88999939  10.53999996  47.36999893
H    21.12999916  11.49000072  51.53999710
H    13.27000046  12.89000034  52.09999847
H    23.42000008   9.65999985  49.95999908
H    23.85000038  11.16000080  49.01000214
S    11.84000015  12.10000038  47.45999908
C     9.35999966  12.69000053  48.30999756
C    10.72000027  12.64000034  48.59000397
C    11.26000023  12.92000008  49.86000061
C    10.34999943  13.28999996  50.84000015
C     8.94999981  13.55999947  50.59000015
C     8.10999966  14.07999992  51.63000107
C     6.76000023  14.25000000  51.33999634
C     6.28000021  14.01999950  50.00000000
C     7.11999989  13.45000076  49.02999878
C     8.47000027  13.21000004  49.29999924
C    12.69999981  12.64000034  50.00999832
C    13.17000008  12.18999958  48.73000336
C    14.48999977  11.82000065  48.50999832
C     4.86999989  14.22999954  49.61000061
H     4.60158873  13.68646812  48.70411682
H     9.02999973  12.38999939  47.31999969
H    10.72999954  13.38999939  51.84999847
H     8.52999973  14.28999996  52.61000061
H     6.15000010  14.63999939  52.15000153
H     6.80000019  13.19000053  48.02000046
H    14.94999981  11.46000004  47.60000229
H     4.76000023  15.31000042  49.43000031
H     4.21999979  13.92000008  50.44000244
