96

S    12.28999996  16.80999947  44.29999924
C     9.72999954  17.21999931  45.06000137
C    10.97000027  16.77999878  45.33000183
C    11.25000000  16.27000046  46.65999985
C    10.24000072  16.28999901  47.63999939
C     8.97999954  16.63999939  47.29000092
C     7.92000008  16.55999947  48.22000122
C     6.67999983  17.12000084  47.85999680
C     6.43000031  17.73999977  46.66999817
C     7.42000008  17.80999947  45.76000214
C     8.69000053  17.18000031  46.03000259
C    12.68000031  15.93999958  46.70000076
C    13.35999966  16.21999931  45.52000046
C    14.75000000  16.05999947  45.28999710
C     5.03999996  18.15000153  46.23000336
H     4.71823835  17.60916710  45.34002304
H     9.53999996  17.72999954  44.10999680
H    10.39999962  16.04999924  48.68999863
H     8.10000038  16.15999985  49.20999908
H     5.86000013  17.01000023  48.56999969
H     7.23999977  18.30000114  44.80999756
H    15.14999962  16.52000046  44.38999939
H     4.32999992  17.94999886  47.04000092
H     4.90000010  19.19000053  45.91999817
S    15.90000057  15.01000023  48.94000244
C    18.60000038  14.91000080  48.09999847
C    17.28000069  15.17000008  47.83000183
C    16.93000031  15.57000065  46.47999573
C    17.93000031  15.71000004  45.47999954
C    19.26000023  15.44000053  45.80999756
C    20.35000038  15.57999992  44.92000198
C    21.61000061  15.00000000  45.20000076
C    21.94000053  14.59000015  46.50000000
C    20.95000076  14.68000031  47.43000031
C    19.60000038  15.03000069  47.11999893
C    15.51000023  15.67000008  46.42000198
C    14.85000038  15.44000053  47.64999771
C    13.43000031  15.52000046  47.77999878
C    23.29000092  14.34000015  46.93000031
H    23.48465347  14.63558483  47.96094131
H    18.81999969  14.57999992  49.10999680
H    17.57999992  16.07999992  44.52000046
H    20.07999802  16.06999969  43.97999573
H    22.34000015  15.07999992  44.40000153
H    21.28000069  14.55999947  48.46000290
H    13.09000015  15.34000015  48.80000305
H    24.06999969  14.93999958  46.43000031
H    23.50000000  13.27000046  46.81000137
S    16.13000107  12.51000023  52.14000320
C    18.81000137  11.95000076  51.33999634
C    17.47999954  12.01000023  51.00999832
C    17.01000023  11.56000042  49.71000290
C    17.85000038  10.98000050  48.79000092
C    19.22000122  11.00999928  49.08000183
C    20.17999840  10.48999977  48.11000061
C    21.44000053  10.53999996  48.46000290
C    21.90000153  11.05999947  49.64000320
C    21.04999924  11.56000042  50.56000137
C    19.68000031  11.51999950  50.31999969
C    15.57000065  11.73999977  49.65000153
C    15.01000023  12.31999969  50.81999969
C    13.73000050  12.74000072  50.94999695
C    23.34000015  10.70000076  50.00000000
H    23.71048164  11.33610916  50.80387115
H    19.19000053  12.38000011  52.27000427
H    17.39999962  10.42000008  47.97000122
H    19.97999954  10.10000038  47.11999893
H    22.20999908  10.07999992  47.83000183
H    21.25000000  11.59999943  51.63000107
H    13.43000031  12.97000027  51.97000122
H    23.39999962   9.61999989  50.20000076
H    24.01000023  10.85000038  49.13999939
S    12.17000008  11.71000004  47.43000031
C     9.63000011  12.79000092  48.16999817
C    10.97000027  12.56999969  48.44999695
C    11.47999954  13.02999973  49.73999786
C    10.65999985  13.53000069  50.75000000
C     9.27999973  13.69999981  50.47000122
C     8.25000000  14.11999893  51.50000000
C     6.90999985  14.11000061  51.19999695
C     6.50000000  13.76000023  49.89999771
C     7.46999979  13.55999947  48.88999939
C     8.80999947  13.35999966  49.15000153
C    12.92000008  12.63000011  49.82999802
C    13.38000107  11.90000057  48.68999863
C    14.68999958  11.51999950  48.54999924
C     5.05999994  13.96000004  49.45999908
H     4.80466080  13.50606441  48.50247955
H     9.10000038  12.48000050  47.28000259
H    10.98000050  13.69999981  51.77999878
H     8.50000000  14.29999924  52.54000092
H     6.21000004  14.42000008  51.95999908
H     7.11000013  13.38999939  47.88000107
H    15.14000034  11.16000080  47.63000107
H     4.88000011  15.03999901  49.38000107
H     4.28999996  13.64999962  50.18000031
