96

S    12.28000069  17.30999947  44.33000183
C     9.59999943  17.71999931  45.11000061
C    10.88000107  17.20999908  45.40999985
C    11.19999981  16.62999916  46.70999908
C    10.25000000  16.52000046  47.64999771
C     8.93999958  17.06999969  47.43999863
C     7.88000011  17.13000107  48.41999817
C     6.63999987  17.53999901  48.09999847
C     6.37000036  18.01000023  46.79000092
C     7.37999964  18.22999954  45.93000031
C     8.69999981  17.75000000  46.14999771
C    12.65999985  16.67000008  46.84000015
C    13.27000046  16.92000008  45.61999893
C    14.65000057  16.79000092  45.52000046
C     4.98000002  18.30999947  46.26999664
H     4.70523882  17.74562454  45.37887955
H     9.30999947  18.15999985  44.15999985
H    10.57999992  16.17000008  48.61999893
H     8.17000008  16.60000038  49.33000183
H     5.82000017  17.42000008  48.81000137
H     7.23000002  18.59000015  44.91000366
H    15.14000034  17.14999962  44.61999893
H     4.28999996  18.05999947  47.09000015
H     4.86000013  19.40000153  46.17000198
S    15.85000038  15.77999973  49.13999939
C    18.45999908  15.36000061  48.43999863
C    17.20000076  15.84000015  48.11000061
C    16.84000015  16.18999863  46.81000137
C    17.80999947  16.31000137  45.86000061
C    19.10000038  15.88999939  46.11999893
C    20.12000084  15.84000015  45.15999603
C    21.42000008  15.47000027  45.54999924
C    21.68000031  15.03000069  46.86999893
C    20.65999985  14.94999981  47.72999573
C    19.43000031  15.48999977  47.47000122
C    15.39999962  16.45000076  46.62000275
C    14.73000050  16.21000099  47.84000015
C    13.40000057  16.40999985  47.97999954
C    23.08000183  14.55000019  47.22999954
H    23.37296295  14.96443558  48.19463348
H    18.75000000  14.98999977  49.41999817
H    17.56999969  16.69000053  44.86999893
H    19.88000107  16.26000023  44.18000031
H    22.23999977  15.59000015  44.85000229
H    20.86000061  14.42000008  48.66000366
H    12.90999985  16.27000046  48.94000244
H    23.71999931  14.91000080  46.40999603
H    23.02999878  13.47000027  47.37999725
S    16.05999947  13.36999989  52.11000061
C    18.70000076  12.58999920  51.39999771
C    17.32999992  12.72999954  51.09000397
C    16.82999992  12.32999992  49.78000259
C    17.67000008  11.84000015  48.81000137
C    19.05999947  11.78999996  49.02999878
C    20.02000046  11.42000008  48.06000137
C    21.32999802  11.30000019  48.29000092
C    21.86000061  11.61999893  49.59000015
C    20.97999954  12.02999973  50.56000137
C    19.59000015  12.10000038  50.37000275
C    15.39999962  12.58999920  49.65999985
C    14.80000019  13.07999992  50.84999847
C    13.45000076  13.40000057  50.90000153
C    23.31000137  11.36000061  49.86000061
H    23.52372742  11.53236198  50.91485214
H    19.11000061  12.86000061  52.36999893
H    17.38999939  11.61000061  47.77999878
H    19.67000008  11.09000015  47.08000183
H    21.97000122  11.09000015  47.43999863
H    21.32999802  12.23999977  51.56999969
H    12.96000004  13.60999966  51.84000015
H    23.54999924  10.34999943  49.52000046
H    23.81999969  12.01000023  49.13999939
S    11.98999977  12.57999992  47.37999725
C     9.40999985  13.35000038  48.11999893
C    10.72000027  13.12999916  48.46000290
C    11.21000099  13.48999977  49.72999954
C    10.29999924  13.82999992  50.73999786
C     8.93000031  13.86000061  50.54999924
C     8.03999996  14.23999977  51.59000015
C     6.70000029  14.15999985  51.24000168
C     6.17999983  14.01999950  49.93000031
C     7.03000021  13.71999931  48.89999771
C     8.43999958  13.64999962  49.13000107
C    12.64999962  13.28999996  49.79000092
C    13.22000027  12.79000092  48.60000229
C    14.56999969  12.46999931  48.54000092
C     4.69000006  14.30999947  49.68000031
H     4.50094557  14.02991867  48.64370346
H     9.18000031  13.22000027  47.06999969
H    10.67999935  13.97999954  51.75000000
H     8.34000015  14.63000107  52.56000137
H     6.01000023  14.50000000  52.02000046
H     6.61999989  13.55999947  47.90000153
H    15.08999920  12.05999947  47.68000031
H     4.63000011  15.39999962  49.81999969
H     4.05999994  13.80000019  50.41999817
