96

S    12.13999939  16.59000015  44.29999924
C     9.73999977  17.65999985  45.30000305
C    10.93999958  17.00000000  45.47999954
C    11.26000023  16.61999893  46.79999924
C    10.34999943  16.67000008  47.80000305
C     9.02999973  17.12000084  47.61000061
C     7.95000029  16.94000053  48.44999695
C     6.63000011  17.30999947  48.01000214
C     6.40999985  17.84000015  46.76000214
C     7.44000006  18.09000015  45.91999817
C     8.76999950  17.69000053  46.29000092
C    12.69000053  16.32999992  46.90999985
C    13.35000038  16.35000038  45.65000153
C    14.70999908  16.27000046  45.50000000
C     4.97000027  18.02999878  46.26999664
H     4.65764189  17.35669518  45.47175217
H     9.39999962  18.09999847  44.36999893
H    10.55999947  16.26000023  48.79000092
H     8.13000011  16.45000076  49.40000153
H     5.80999947  17.00000000  48.63999939
H     7.22000027  18.19000053  44.86000061
H    15.24000072  16.39000130  44.55999756
H     4.41000032  17.94000053  47.21000290
H     4.67999983  19.03000069  45.91999817
S    15.90000057  15.44000053  49.22000122
C    18.48999977  14.85000038  48.47999954
C    17.25000000  15.21000004  48.08000183
C    16.87999916  15.65999985  46.73999786
C    17.85000038  15.77999973  45.80999756
C    19.11000061  15.19000053  46.09000397
C    20.17999840  15.19000053  45.08999634
C    21.45000076  14.78999996  45.33000183
C    21.76000214  14.26000023  46.69000244
C    20.79000092  14.27000046  47.65999603
C    19.42000008  14.75000000  47.44999695
C    15.44000053  15.97000027  46.63999939
C    14.84000015  15.82999992  47.88999939
C    13.43999958  15.97000027  48.06999969
C    23.19999886  13.97999954  47.15000153
H    23.55961800  14.61781406  47.95744705
H    18.73999977  14.34999943  49.41999817
H    17.60000038  16.26000023  44.86000061
H    19.89999962  15.72999954  44.20000076
H    22.21999931  15.14999962  44.65000153
H    21.09000015  14.21000004  48.70999908
H    13.00000000  15.82999992  49.05000305
H    23.95999908  13.97999954  46.36000061
H    23.25000000  12.97000027  47.56999969
S    11.95000076  17.13999939  51.13999939
C     9.26999950  17.59000015  51.76000214
C    10.47999954  17.05000114  52.09000015
C    10.80999947  16.52000046  53.34999847
C     9.73999977  16.46000099  54.23999786
C     8.39999962  16.87000084  53.89999771
C     7.34000015  16.69999886  54.85000229
C     6.05999994  17.09000015  54.52999878
C     5.89999962  17.79999924  53.31999969
C     6.94999981  17.97999954  52.44999695
C     8.22000027  17.50000000  52.69000244
C    12.20999908  16.36000061  53.61999893
C    12.94000053  16.61999893  52.45999908
C    14.34999943  16.64999962  52.38999939
C     4.51000023  18.17000008  52.85999680
H     4.11685705  17.72681999  51.94504929
H     9.11000061  18.05999947  50.79000092
H     9.94000053  15.98000050  55.19000244
H     7.63999987  16.11999893  55.72999954
H     5.13000011  17.02000046  55.08999634
H     6.83000040  18.46999931  51.49000168
H    14.88999939  16.72999954  51.45000076
H     3.81000018  17.79000092  53.61000061
H     4.40000010  19.27000046  52.84000015
S    15.31999969  15.82999992  56.11999893
C    17.94999886  15.17000008  55.27000046
C    16.73999977  15.75000000  54.98000336
C    16.46999931  16.28000069  53.73000336
C    17.50000000  16.27000046  52.77999878
C    18.71999931  15.62999916  53.01000214
C    19.78999901  15.67000008  52.12999725
C    21.01000023  15.31000042  52.43000031
C    21.22999954  14.78000069  53.72000122
C    20.25000000  14.70999908  54.72999954
C    18.96999931  15.13000011  54.33000183
C    15.03000069  16.47999954  53.56999969
C    14.27000046  16.31000137  54.75999832
C    12.89000034  16.18999863  54.81999969
C    22.70999908  14.52999973  54.08000183
H    23.00716591  15.14555931  54.92904663
H    18.13999939  14.82999992  56.27999878
H    17.29999924  16.63999939  51.77999878
H    19.54000092  16.28999901  51.26999664
H    21.87999916  15.44000053  51.79000092
H    20.45000076  14.47000027  55.77000046
H    12.30000019  16.06999969  55.72000122
H    23.31999969  14.72000027  53.18999863
H    22.79999924  13.45000076  54.26000214
