96

S    12.53999901  16.93000031  44.08000183
C     9.96000004  17.51000023  44.87999725
C    11.14999962  16.87999916  45.11000061
C    11.47999954  16.38000107  46.45000076
C    10.52999973  16.28000069  47.45999908
C     9.22999954  16.86000061  47.18999863
C     8.22000027  16.64999962  48.18000031
C     6.94000006  17.05000114  47.84999847
C     6.61000013  17.70000076  46.59000015
C     7.63000011  17.98999977  45.70000076
C     8.97000027  17.52000046  45.87999725
C    12.92000008  16.14999962  46.52999878
C    13.61999989  16.50000000  45.35999680
C    14.96999931  16.63999939  45.38999939
C     5.17000008  18.01000023  46.29000092
H     4.77746105  17.45452118  45.43826294
H     9.64999962  17.90999985  43.92000198
H    10.81999969  15.67999935  48.30999756
H     8.43000031  16.14999962  49.10999680
H     6.09000015  16.72999954  48.43999863
H     7.35000038  18.54999924  44.80999756
H    15.48999977  16.98999977  44.50000000
H     4.51999998  17.71999931  47.12999725
H     5.00999975  19.07999992  46.11000061
S    15.98999977  15.14000034  48.97999573
C    18.67000008  14.84000015  48.33000183
C    17.46999931  15.34000015  48.06999969
C    17.20999908  16.03000069  46.81000137
C    18.23999977  16.13999939  45.86000061
C    19.45000076  15.57999992  46.16000366
C    20.51000214  15.69000053  45.27999878
C    21.77000046  15.18000031  45.52000046
C    22.07999992  14.52999973  46.72999954
C    21.04999924  14.44000053  47.65999603
C    19.71999931  14.93999958  47.39999771
C    15.77999973  16.29999924  46.56000137
C    14.96999931  15.90000057  47.69000244
C    13.56999969  15.85000038  47.70000076
C    23.45999908  14.07999992  47.14000320
H    23.73251152  14.53179550  48.09379578
H    18.86000061  14.29999924  49.25000000
H    18.02999878  16.47999954  44.85000229
H    20.20999908  16.26000023  44.40000153
H    22.49000168  15.27999973  44.72000122
H    21.21000099  13.89000034  48.59000397
H    12.97999954  15.65999985  48.59000397
H    24.13999939  14.34999943  46.31999969
H    23.46999931  12.98999977  47.14000320
S    11.95000076  16.53000069  50.96000290
C     9.36999989  17.21999931  51.72000122
C    10.57000065  16.69000053  52.08000183
C    10.98000050  16.40999985  53.39000320
C    10.03000069  16.36999893  54.33000183
C     8.73000050  16.79999924  54.02999878
C     7.69000006  16.79999924  54.98000336
C     6.42000008  17.22999954  54.68999863
C     6.12999964  17.73999977  53.41999817
C     7.13000011  17.86999893  52.50000000
C     8.39999962  17.36999893  52.77000046
C    12.43999958  16.31000137  53.47999954
C    13.17000008  16.26000023  52.27000427
C    14.52000046  16.26000023  52.25999832
C     4.67000008  18.20000076  53.09999847
H     4.34402418  17.48562813  52.34401321
H     9.23999977  17.69000053  50.73999786
H    10.29000092  15.92000008  55.28999710
H     7.96999979  16.38000107  55.94999695
H     5.65999985  17.35000038  55.45000076
H     6.91999960  18.04000092  51.44000244
H    14.92000008  16.38000107  51.25999832
H     3.96000004  18.20999908  53.95000076
H     4.69000006  19.23999977  52.75000000
S    15.50000000  15.69000053  55.97000122
C    18.20999908  15.03000069  55.37000275
C    16.97999954  15.42000008  54.94999695
C    16.62999916  15.65999985  53.61000061
C    17.60000038  15.62999916  52.70000076
C    18.95000076  15.36999893  53.02999878
C    20.00000000  15.31000042  52.09000015
C    21.28000069  14.98000050  52.43000031
C    21.59000015  14.70000076  53.75999832
C    20.55000114  14.70000076  54.66999817
C    19.23999977  15.01000023  54.38000107
C    15.21000004  15.95000076  53.33000183
C    14.50000000  15.98999977  54.58000183
C    13.10999966  16.21999931  54.66999817
C    22.95999908  14.19000053  54.15999985
H    23.28466225  14.53630829  55.14120483
H    18.45999908  14.75999928  56.38999939
H    17.36999893  15.92000008  51.68000031
H    19.77000046  15.40999985  51.04000092
H    22.06999969  14.85999966  51.69000244
H    20.76000023  14.45000076  55.70000076
H    12.56000042  16.26000023  55.59999847
H    23.68999863  14.52999973  53.40999985
H    22.86999893  13.09999943  54.13999939
