96

S    12.18999958  17.18000031  44.31000137
C     9.51000023  17.40999985  44.94999695
C    10.77000046  17.10000038  45.34000015
C    11.10999966  16.67000008  46.69000244
C    10.08999920  16.47999954  47.67000198
C     8.76999950  16.72999954  47.25999832
C     7.71000004  16.77999878  48.18000031
C     6.42000008  17.28999901  47.83000183
C     6.15999985  17.63000107  46.50000000
C     7.17000008  17.64999962  45.59999847
C     8.53999996  17.34000015  45.97999954
C    12.51000023  16.50000000  46.81999969
C    13.23999977  16.84000015  45.61999893
C    14.63000107  16.73999977  45.59000015
C     4.69999981  18.02999878  46.03000259
H     4.31799316  17.23768997  45.38624954
H     9.22000027  17.72999954  43.95000076
H    10.39000034  16.51000023  48.72000122
H     7.92999983  16.43000031  49.18000031
H     5.66999960  17.27000046  48.61000061
H     6.90000010  17.82999992  44.56999969
H    15.25000000  17.09000015  44.77000427
H     4.13000011  18.15000153  46.95999908
H     4.85000038  19.04999924  45.65999985
S    15.69000053  15.59000015  49.23999786
C    18.38999939  15.18000031  48.57999802
C    17.15999985  15.62000084  48.18999863
C    16.84000015  16.13999939  46.93000031
C    17.87999916  16.31999969  46.04999924
C    19.19000053  15.80000019  46.38999939
C    20.19000053  15.82999992  45.35999680
C    21.45000076  15.43000031  45.68000031
C    21.77999878  15.00000000  47.02999878
C    20.82999992  15.01000023  47.95999908
C    19.47999954  15.27999973  47.63999939
C    15.42000008  16.31999969  46.72000122
C    14.65999985  15.98999977  47.88000107
C    13.23999977  16.06999969  47.93000031
C    23.19000053  14.68999958  47.39999771
H    23.38947678  15.08182907  48.39738464
H    18.65999985  14.96999931  49.61000061
H    17.73999977  16.60000038  45.00000000
H    20.00000000  16.40999985  44.45999908
H    22.29999924  15.57000065  45.00999832
H    21.07000160  14.72000027  48.97999573
H    12.79000092  15.77999973  48.87000275
H    23.69999886  15.26000023  46.62000275
H    23.38999939  13.60999966  47.29000092
S    16.31999969  12.48999977  52.42000198
C    18.98999977  12.55000019  51.36000061
C    17.67000008  12.34000015  51.20999908
C    17.05999947  11.90999985  49.94999695
C    17.93000031  11.56999969  48.97999573
C    19.34000015  11.72999954  49.08000183
C    20.22999954  11.00000000  48.15000153
C    21.53000069  10.95999908  48.40999985
C    22.07999992  11.39999962  49.69999695
C    21.22999954  12.10000038  50.59999847
C    19.88000107  12.23999977  50.31999969
C    15.64000034  12.15000057  49.89999771
C    15.06000042  12.44999981  51.14999771
C    13.78000069  12.93000031  51.24000168
C    23.36000061  10.77999973  50.19000244
H    23.60661697  11.04716873  51.21757507
H    19.32999992  12.69000053  52.37999725
H    17.56000137  10.88000107  48.22000122
H    19.78999901  10.29000092  47.45999908
H    22.00000000  10.19000053  47.80000305
H    21.47000122  12.13999939  51.65999985
H    13.35999966  13.07999992  52.22999954
H    23.25000000   9.70000076  50.06999969
H    24.15999985  11.00999928  49.47000122
S    12.38000011  12.18000031  47.65999603
C     9.71000004  12.93000031  48.37999725
C    11.10999966  12.86999893  48.68000031
C    11.56999969  13.26000023  49.97000122
C    10.60999966  13.63000011  50.97999954
C     9.22999954  13.67000008  50.63000107
C     8.19999981  14.09000015  51.55000305
C     6.93000031  14.27999973  51.20999908
C     6.51000023  14.06000042  49.86999893
C     7.36999989  13.40999985  49.05000305
C     8.78000069  13.30000019  49.31999969
C    12.97999954  12.94000053  50.06000137
C    13.48999977  12.35000038  48.88999939
C    14.84000015  12.01000023  48.77999878
C     5.07000017  14.17000008  49.43999863
H     4.85809040  13.72425938  48.46813965
H     9.23999977  12.53000069  47.48000336
H    10.85000038  13.86000061  52.01000214
H     8.63000011  14.32000065  52.52999878
H     6.19000006  14.56999969  51.95999908
H     7.03000021  13.10999966  48.06000137
H    15.34000015  11.69999981  47.85999680
H     4.99000025  15.26000023  49.38999939
H     4.42999983  13.75000000  50.22999573
