96

S    12.15000057  16.73999977  44.27000046
C     9.64999962  17.28999901  45.06000137
C    10.81999969  16.69000053  45.34000015
C    11.13000011  16.20000076  46.62000275
C    10.18000031  16.32999992  47.58999634
C     8.89999962  16.90000153  47.36999893
C     7.82000017  16.95000076  48.27999878
C     6.63999987  17.56999969  47.90000153
C     6.38000011  17.90999985  46.56999969
C     7.40999985  17.84000015  45.72999954
C     8.69999981  17.43999863  46.07999802
C    12.51000023  15.88000107  46.76000214
C    13.22000027  16.07999992  45.54999924
C    14.60000038  16.04999924  45.44000244
C     4.99000025  18.18000031  46.14999771
H     4.63797808  17.58596230  45.30661392
H     9.35999966  17.56999969  44.05000305
H    10.34999943  15.82999992  48.54000092
H     8.02999973  16.39999962  49.19000244
H     5.82000017  17.57999992  48.61000061
H     7.31999969  17.94000053  44.65999985
H    14.96999931  16.10000038  44.41999817
H     4.38000011  18.02000046  47.04000092
H     4.85000038  19.20999908  45.81999969
S    15.70000076  15.01000023  49.06000137
C    18.39999962  14.77000046  48.43999863
C    17.15999985  15.14999962  48.09999847
C    16.79999924  15.59000015  46.81999969
C    17.82999992  15.71000004  45.87999725
C    19.12999916  15.31999969  46.19999695
C    20.12000084  15.34999943  45.21999741
C    21.42999840  15.00000000  45.52000046
C    21.73999977  14.48999977  46.79999924
C    20.79999924  14.46000004  47.77999878
C    19.44000053  14.80999947  47.51999664
C    15.36999893  15.75000000  46.59000015
C    14.65000057  15.42000008  47.76000214
C    13.28999996  15.40999985  47.84000015
C    23.22999954  14.19999981  47.12999725
H    23.48352051  14.74432373  48.03968811
H    18.67000008  14.32000065  49.38999939
H    17.70000076  16.06999969  44.86000061
H    19.75000000  15.67000008  44.25000000
H    22.11000061  15.06999969  44.68000031
H    21.07999992  14.04000092  48.74000168
H    12.81999969  15.15999985  48.79000092
H    23.88000107  14.39000034  46.26999664
H    23.45999908  13.15999985  47.37999725
S    16.40999985  12.46999931  52.15000153
C    19.00000000  11.98999977  51.23000336
C    17.67000008  11.90999985  50.98999786
C    17.14999962  11.52999973  49.68000031
C    18.04999924  11.18999958  48.66000366
C    19.45000076  11.21999931  48.90999603
C    20.43999863  10.65000057  48.08000183
C    21.73000145  10.53999996  48.50000000
C    22.11999893  11.10000038  49.73999786
C    21.21999931  11.73999977  50.56000137
C    19.88999939  11.69000053  50.20999908
C    15.69000053  11.73999977  49.61999893
C    15.17000008  12.35000038  50.87999725
C    13.78999901  12.71000004  51.00000000
C    23.59999847  10.95000076  50.24000168
H    23.79900551  11.34801292  51.23503113
H    19.45000076  12.35000038  52.15000153
H    17.60000038  10.73999977  47.77999878
H    20.13999939  10.21000004  47.14000320
H    22.46999931   9.98000050  47.94000244
H    21.54000092  12.18000031  51.50000000
H    13.35999966  13.04999924  51.93000031
H    24.01000023   9.94000053  50.14999771
H    24.26000214  11.50000000  49.54999924
S    12.18000031  11.80999947  47.38999939
C     9.68999958  12.84999943  48.11999893
C    11.02000046  12.60000038  48.43000031
C    11.50000000  12.82999992  49.72999954
C    10.67000008  13.22000027  50.66999817
C     9.30999947  13.53999996  50.40000153
C     8.45000076  14.07999992  51.36000061
C     7.14999962  14.37000084  51.11999893
C     6.61000013  14.01999950  49.80999756
C     7.40000010  13.43999958  48.80000305
C     8.80999947  13.30999947  49.09000015
C    12.86999893  12.53000069  49.92000198
C    13.45999908  11.95000076  48.72000122
C    14.78000069  11.56000042  48.52000427
C     5.21000004  14.59000015  49.43000031
H     4.76378202  14.29019737  48.48178864
H     9.44999981  12.72999954  47.06999969
H    10.85999966  13.47000027  51.70999908
H     8.90999985  14.28999996  52.31999969
H     6.67000008  15.01999950  51.84999847
H     7.00999975  13.07999992  47.84999847
H    15.14999962  11.18999958  47.56999969
H     5.26000023  15.67999935  49.58000183
H     4.50000000  14.17000008  50.15999603
