96

S    12.18999958  16.77999878  44.13000107
C     9.57999992  17.13000107  44.93999863
C    10.80000019  16.69000053  45.20999908
C    11.18000031  16.21999931  46.52999878
C    10.24000072  16.21000099  47.52999878
C     8.89000034  16.55999947  47.29000092
C     7.85000038  16.68000031  48.26000214
C     6.63000011  17.34000015  48.01000214
C     6.34000015  17.64999962  46.68000031
C     7.23999977  17.43999863  45.66999817
C     8.57999992  17.02999878  45.93000031
C    12.55000019  15.93000031  46.66999817
C    13.25000000  16.39000130  45.56000137
C    14.63999939  16.38000107  45.56999969
C     4.90000010  18.02999878  46.43000031
H     4.51281309  17.41865349  45.61486816
H     9.34000015  17.59000015  43.99000168
H    10.53999996  16.20000076  48.56999969
H     8.18000031  16.44000053  49.27000046
H     5.88999987  17.43999863  48.79000092
H     7.05999947  17.77000046  44.65000153
H    15.19000053  16.61999893  44.65999985
H     4.34999990  17.97999954  47.37999725
H     4.81999969  19.07999992  46.13999939
S    15.60999966  15.03999901  49.15999985
C    18.37000084  14.77000046  48.59000397
C    17.10000038  15.24000072  48.23999786
C    16.77000046  15.77999973  46.93999863
C    17.84000015  15.85999966  46.02000427
C    19.15999985  15.31000042  46.30000305
C    20.22999954  15.36000061  45.38000107
C    21.42000008  14.75999928  45.65999985
C    21.68000031  14.35999966  47.00000000
C    20.69999886  14.37000084  47.88999939
C    19.40000153  14.75000000  47.60000229
C    15.38000011  16.01000023  46.72000122
C    14.60999966  15.64000034  47.85999680
C    13.22999954  15.65999985  47.88000107
C    23.05000114  13.92000008  47.41000366
H    23.27981567  14.42141151  48.35014725
H    18.48999977  14.29999924  49.56999969
H    17.72999954  16.23999977  45.00999832
H    20.10999870  15.84000015  44.40999985
H    22.23999977  14.77000046  44.95999908
H    20.94000053  14.00000000  48.88999939
H    12.65999985  15.39000034  48.75999832
H    23.77000046  14.15999985  46.62000275
H    23.08000183  12.84000015  47.58999634
S    16.17000008  12.61999989  52.35000229
C    18.82999992  11.92000008  51.65999985
C    17.45000076  12.00000000  51.35000229
C    17.00000000  11.71000004  49.99000168
C    17.87999916  11.19999981  49.08000183
C    19.30999947  11.09000015  49.34999847
C    20.23999977  10.62000084  48.40000153
C    21.54999924  10.52000046  48.75999832
C    22.01999855  11.00000000  49.97000122
C    21.18000031  11.46999931  50.90999985
C    19.77000046  11.46000004  50.66999817
C    15.55999947  11.95000076  49.89999771
C    14.96000099  12.43999958  51.09000397
C    13.66000080  12.79000092  51.11999893
C    23.48999977  10.72999954  50.30000305
H    23.82176208  10.94176388  51.31646347
H    19.19999886  12.28999996  52.61000061
H    17.43000031  11.00999928  48.11000061
H    19.80999947  10.32999992  47.43999863
H    22.13999939   9.77999973  48.22000122
H    21.63999939  11.76000023  51.84999847
H    13.42000008  13.35999966  52.01000214
H    23.62999916   9.63999939  50.25000000
H    24.20000076  11.13999939  49.58000183
S    12.23999977  11.85999966  47.55000305
C     9.65999985  12.74000072  48.22999954
C    10.95000076  12.61999989  48.54000092
C    11.44999981  12.89000034  49.86000061
C    10.55999947  13.36999989  50.89000320
C     9.21000004  13.50999928  50.56999969
C     8.30000019  14.04000092  51.53999710
C     6.98000002  14.23999977  51.17000198
C     6.38000011  13.53999996  50.01999664
C     7.26999998  12.98999977  49.09999847
C     8.71000004  13.02000046  49.27999878
C    12.86000061  12.53000069  50.02999878
C    13.43000031  11.98999977  48.83999634
C    14.77000046  11.69999981  48.79000092
C     4.90000010  13.81999969  49.55999756
H     4.68707323  13.40834141  48.57343674
H     9.30999947  12.39999962  47.25999832
H    10.93000031  13.60999966  51.88000107
H     8.80999947  14.47999954  52.38999939
H     6.44999981  14.98999977  51.73999786
H     6.86999989  12.76000023  48.11000061
H    15.31999969  11.46000004  47.88000107
H     4.71000004  14.88999939  49.72000122
H     4.28000021  13.40000057  50.35999680
