96

S    12.23999977  16.87999916  44.15000153
C     9.59999943  17.38000107  44.95999908
C    10.90999985  16.95999908  45.33000183
C    11.23999977  16.54999924  46.60999680
C    10.24000072  16.42000008  47.51999664
C     8.89000034  16.65999985  47.22000122
C     7.76999998  16.59000015  48.15000153
C     6.46000004  16.97999954  47.81000137
C     6.23000050  17.54999924  46.50000000
C     7.31999969  17.79999924  45.68000031
C     8.59000015  17.25000000  45.96000290
C    12.64999962  16.36999893  46.72000122
C    13.28999996  16.44000053  45.45000076
C    14.63999939  16.20000076  45.35999680
C     4.84000015  17.90999985  46.10000229
H     4.46255541  17.16935539  45.39496231
H     9.48000050  17.97999954  44.06000137
H    10.59999943  16.31000137  48.54000092
H     8.01000023  16.35000038  49.18000031
H     5.65999985  16.88999939  48.54000092
H     7.13999987  18.42000008  44.79999924
H    15.14999962  16.23999977  44.40000153
H     4.15000010  17.87999916  46.95000076
H     4.78999996  18.86999893  45.56000137
S    15.77999973  15.40999985  49.20000076
C    18.37000084  14.78999996  48.40000153
C    17.09000015  15.17000008  48.04000092
C    16.77999878  15.57999992  46.72999954
C    17.84000015  15.65000057  45.81999969
C    19.17000008  15.40999985  46.16000366
C    20.20000076  15.48999977  45.24000168
C    21.42999840  14.93999958  45.61999893
C    21.67000008  14.44000053  46.91999817
C    20.65999985  14.37999916  47.77999878
C    19.40999985  14.84000015  47.44999695
C    15.36000061  15.93999958  46.59000015
C    14.70999908  15.90999985  47.84999847
C    13.35999966  16.13999939  47.88999939
C    23.11000061  14.06000042  47.34000397
H    23.38318634  14.41945648  48.33210373
H    18.50000000  14.39000034  49.40000153
H    17.59000015  16.03999901  44.82999802
H    20.06999969  15.81999969  44.20999908
H    22.25000000  14.89999962  44.91000366
H    20.82999992  13.96999931  48.77999878
H    12.84999943  15.95000076  48.82999802
H    23.69999886  14.55999947  46.56000137
H    23.32999992  12.98999977  47.19999695
S    16.32999992  12.81000042  52.30999756
C    18.86999893  11.96000004  51.53999710
C    17.52000046  12.02000046  51.23000336
C    16.98999977  11.79999924  49.91000366
C    17.88999939  11.39000034  48.87000275
C    19.27999878  11.35000038  49.13000107
C    20.27000046  10.64000034  48.29000092
C    21.61000061  10.44999981  48.77999878
C    22.06000137  11.11999989  49.98000336
C    21.14999962  11.67000008  50.83000183
C    19.75000000  11.69999981  50.45999908
C    15.59999943  12.10000038  49.86000061
C    15.07999992  12.72999954  51.02000427
C    13.75000000  13.17000008  51.05999756
C    23.45000076  10.65999985  50.54000092
H    23.68277931  10.95626259  51.56281281
H    19.29999924  12.35999966  52.44999695
H    17.48999977  10.82999992  48.02999878
H    19.75000000  10.06000042  47.52999878
H    22.22999954   9.65999985  48.34999847
H    21.42000008  11.92000008  51.84999847
H    13.27000046  13.48000050  51.97999954
H    23.69999886   9.59000015  50.44000244
H    24.18000031  11.11999989  49.86000061
S    12.32999992  11.96000004  47.47000122
C     9.68000031  12.65999985  48.15000153
C    11.03000069  12.61000061  48.46000290
C    11.56000042  13.12000084  49.75000000
C    10.65000057  13.68999958  50.63999939
C     9.22999954  13.63999939  50.40000153
C     8.26000023  14.17000008  51.35000229
C     6.94000006  14.27000046  51.06999969
C     6.44000006  13.64999962  49.87999725
C     7.31999969  13.07000065  48.93000031
C     8.71000004  13.05999947  49.18000031
C    12.98999977  12.94000053  49.88999939
C    13.55999947  12.28000069  48.70999908
C    14.88999939  11.92000008  48.67000198
C     4.99000025  13.78000069  49.59000015
H     4.77393866  13.52908993  48.55150986
H     9.25000000  12.44999981  47.16999817
H    11.16000080  14.04000092  51.52999878
H     8.73999977  14.55999947  52.23999786
H     6.21000004  14.80999947  51.66999817
H     6.89000034  12.60000038  48.04999924
H    15.36999893  11.47999954  47.80000305
H     4.71000004  14.78000069  49.93000031
H     4.32000017  13.10999966  50.13000107
