96

S    12.17000008  16.45000076  44.36999893
C     9.44999981  16.84000015  45.00000000
C    10.71000004  16.44000053  45.37000275
C    11.07999992  16.10000038  46.77000046
C    10.06000042  16.13999939  47.65999603
C     8.71999931  16.55999947  47.29999924
C     7.60999966  16.55999947  48.25000000
C     6.32999992  16.90999985  47.85999680
C     6.11999989  17.50000000  46.56999969
C     7.11999989  17.38999939  45.63999939
C     8.43999958  16.92000008  45.93000031
C    12.48000050  15.80999947  46.91999817
C    13.19000053  16.00000000  45.77000046
C    14.51000023  15.82999992  45.77000046
C     4.80999994  17.97000122  46.16000366
H     4.45151281  17.40063858  45.30244064
H     9.36999989  17.11000061  43.95000076
H    10.24000072  15.80000019  48.68000031
H     7.78999996  16.10000038  49.20999908
H     5.55999994  16.69999886  48.60000229
H     6.88000011  17.65999985  44.61999893
H    14.93999958  16.17000008  44.82999802
H     4.15000010  17.79000092  47.02000046
H     4.74000025  19.03000069  45.91999817
S    15.65999985  15.01000023  49.43000031
C    18.30999947  14.52000046  48.75999832
C    17.09000015  14.98999977  48.40999985
C    16.65999985  15.36000061  47.09000015
C    17.61999893  15.22999954  46.05999756
C    18.97999954  14.78999996  46.35000229
C    20.07999802  14.82999992  45.38999939
C    21.37000084  14.61999989  45.86000061
C    21.63999939  14.25000000  47.11000061
C    20.62000084  14.06999969  48.02999878
C    19.27000046  14.44000053  47.71999741
C    15.26000023  15.57000065  46.90000153
C    14.56999969  15.32999992  48.06000137
C    13.17999935  15.44000053  48.13999939
C    23.08000183  13.89999962  47.48000336
H    23.46018410  14.50255299  48.30492401
H    18.56999969  14.06000042  49.71000290
H    17.42000008  15.62000084  45.06000137
H    19.88000107  14.96000099  44.33000183
H    22.14999962  14.30999947  45.17000198
H    20.88999939  13.78999901  49.03999710
H    12.67000008  15.05000019  49.02000046
H    23.75000000  14.07999992  46.62000275
H    23.19000053  12.84000015  47.72999573
S    11.63000011  16.52000046  51.06999969
C     9.02999973  17.09000015  51.81000137
C    10.25000000  16.55999947  52.15000153
C    10.64000034  16.20000076  53.48999786
C     9.61000061  16.10999870  54.41999817
C     8.30999947  16.62999916  54.13000107
C     7.32999992  16.69000053  55.13000107
C     6.05000019  17.05000114  54.77000427
C     5.77000046  17.43000031  53.48999786
C     6.74000025  17.65999985  52.52999878
C     8.02999973  17.13000107  52.81000137
C    12.05000019  16.04999924  53.72000122
C    12.71000004  16.21000099  52.47000122
C    14.09000015  16.18999863  52.38999939
C     4.34999990  17.72999954  53.06999969
H     4.02219725  17.24193764  52.15215302
H     8.76999950  17.39999962  50.79999924
H     9.88000011  15.85999966  55.44000244
H     7.53999996  16.21000099  56.07999802
H     5.29999971  16.98999977  55.54999924
H     6.63000011  18.04999924  51.52999878
H    14.60999966  16.21000099  51.44000244
H     3.58999991  17.36999893  53.76999664
H     4.13000011  18.81000137  53.09000015
S    15.34999943  15.11999989  55.98999786
C    18.07999992  14.68000031  55.12000275
C    16.73999977  15.13000011  54.84000397
C    16.35000038  15.59000015  53.54999924
C    17.34000015  15.53999996  52.55000305
C    18.68999863  15.29999924  52.83000183
C    19.72999954  15.48999977  51.84999847
C    21.02000046  15.13000011  52.18999863
C    21.28999901  14.55000019  53.41999817
C    20.30999947  14.39000034  54.36000061
C    19.02000046  14.84000015  54.13999939
C    14.91000080  15.82999992  53.52000427
C    14.30999947  15.57000065  54.68999863
C    12.88000011  15.67999935  54.78000259
C    22.72999954  14.09999943  53.73000336
H    22.89919281  14.26214409  54.79451370
H    18.30999947  14.22000027  56.07999802
H    17.05999947  15.97000027  51.59000015
H    19.52000046  15.90000057  50.86000061
H    21.80000114  15.14999962  51.42000198
H    20.51000214  13.81999969  55.26000214
H    12.43999958  15.64000034  55.77000046
H    23.47999954  14.56999969  53.08000183
H    22.95000076  13.02999973  53.69999695
