96

S    12.20000076  16.77000046  44.09000015
C     9.55000019  16.80999947  44.72000122
C    10.78999996  16.43000031  45.06000137
C    11.19999981  15.93999958  46.26999664
C    10.22999954  15.77000046  47.27000427
C     8.97000027  16.31000137  46.98999786
C     7.96000004  16.21999931  48.04000092
C     6.63999987  16.64999962  47.88999939
C     6.30999994  17.07999992  46.52000046
C     7.26999998  17.22999954  45.54999924
C     8.59000015  16.81999969  45.75000000
C    12.61999989  15.67999935  46.46999741
C    13.30999947  16.15999985  45.34000015
C    14.65999985  16.28000069  45.34000015
C     4.86000013  17.32999992  46.18999863
H     4.60350323  16.97090530  45.19332504
H     9.26999950  17.21999931  43.75000000
H    10.39999962  15.18000031  48.15999985
H     8.27000046  15.60999966  48.88000107
H     6.00000000  16.60000038  48.76999664
H     7.07999992  17.68000031  44.58000183
H    15.26999950  16.62999916  44.52000046
H     4.19000006  16.93000031  46.95999908
H     4.74000025  18.42000008  46.20999908
S    15.72999954  15.01000023  48.95999908
C    18.51000023  15.05000019  48.23999786
C    17.20000076  15.39000034  47.95999908
C    16.77999878  15.77999973  46.68000031
C    17.73999977  15.92000008  45.65000153
C    19.12999916  15.80999947  45.97000122
C    20.09000015  15.77000046  44.93999863
C    21.35000038  15.36000061  45.20000076
C    21.76000214  15.06999969  46.56000137
C    20.81999969  14.96999931  47.54000092
C    19.47999954  15.34000015  47.27000427
C    15.32999992  15.75000000  46.45000076
C    14.63000107  15.27999973  47.60000229
C    13.23999977  15.24000072  47.60000229
C    23.15999985  14.73000050  46.88999939
H    23.43961334  15.19835281  47.83369446
H    18.81999969  14.65000057  49.20999908
H    17.51000023  16.03999901  44.59000015
H    19.78999901  16.05999947  43.94000244
H    22.11999893  15.24000072  44.45000076
H    21.11000061  14.44000053  48.43999863
H    12.63000011  14.89999962  48.43000031
H    23.77000046  15.15999985  46.07999802
H    23.13999939  13.63999939  46.93000031
S    12.20999908  16.54999924  50.72999954
C     9.53999996  17.12000084  51.42000198
C    10.73999977  16.68000031  51.79999924
C    11.11999989  16.21999931  53.06000137
C    10.06000042  16.15999985  53.97999573
C     8.73999977  16.57999992  53.63999939
C     7.65999985  16.46999931  54.59999847
C     6.42000008  16.94000053  54.27000046
C     6.10000038  17.43999863  53.00000000
C     7.13000011  17.59000015  52.11999893
C     8.47999954  17.11000061  52.36000061
C    12.53000069  16.18000031  53.36999893
C    13.27999973  16.28999901  52.18000031
C    14.67000008  16.40999985  52.14000320
C     4.88000011  18.07999992  52.67000198
H     4.32786560  17.44399643  51.97808456
H     9.34000015  17.53999901  50.44000244
H    10.17000008  15.60999966  54.91000366
H     7.94000053  16.13000107  55.59000015
H     5.64000034  16.94000053  55.02999878
H     7.11999989  18.12999916  51.17000198
H    15.26999950  16.42000008  51.24000168
H     4.28000021  18.25000000  53.56999969
H     5.03000021  19.05999947  52.18000031
S    15.71000004  15.38000011  55.72000122
C    18.35000038  15.27999973  55.02999878
C    17.11000061  15.52999973  54.75000000
C    16.75000000  15.98000050  53.40999985
C    17.72999954  15.88999939  52.39999771
C    19.05999947  15.62000084  52.70999908
C    20.06000137  15.57999992  51.70999908
C    21.37000084  15.27999973  51.98999786
C    21.65999985  14.89999962  53.30999756
C    20.68000031  14.84000015  54.29999924
C    19.34000015  15.26999950  54.02999878
C    15.29999924  16.21000099  53.30999756
C    14.57999992  15.92000008  54.43999863
C    13.22999954  15.90000057  54.54000092
C    23.12999916  14.53999996  53.61999893
H    23.48304939  15.12361526  54.47020340
H    18.56999969  14.89999962  56.03000259
H    17.38000107  16.01000023  51.38000107
H    19.78999901  15.98999977  50.73999786
H    22.11999893  15.39999962  51.20999908
H    20.98999977  14.55000019  55.30000305
H    12.65999985  15.57000065  55.40000153
H    23.75999832  14.60999966  52.72999573
H    23.22999954  13.48999977  53.92000198
