96

S    12.23999977  16.56999969  43.97999573
C     9.68000031  17.26000023  44.77000427
C    10.86999989  16.57999992  45.06000137
C    11.18999958  16.13999939  46.38999939
C    10.19999981  16.18000031  47.36000061
C     8.94999981  16.72999954  47.06999969
C     7.99000025  16.82999992  48.08000183
C     6.75000000  17.30999947  47.75000000
C     6.43000031  17.78000069  46.43000031
C     7.42000008  17.87999916  45.54000092
C     8.71999931  17.31999969  45.79000092
C    12.64000034  16.10999870  46.52999878
C    13.35999966  16.26000023  45.31000137
C    14.72000027  16.31999969  45.19000244
C     5.00000000  18.02000046  45.98999786
H     4.75150681  17.31711769  45.19482040
H     9.40999985  17.71000099  43.81999969
H    10.38000011  15.67000008  48.29999924
H     8.19999981  16.31999969  49.02000046
H     6.00000000  17.30999947  48.54000092
H     7.25000000  18.27000046  44.54000092
H    15.15999985  16.34000015  44.19000244
H     4.23999977  17.97000122  46.77999878
H     5.00999975  19.02000046  45.52999878
S    15.95000076  15.72999954  48.92000198
C    18.60999870  15.40999985  48.22999954
C    17.32999992  15.76000023  47.81000137
C    16.97999954  15.92000008  46.44000244
C    18.01000023  15.80999947  45.47000122
C    19.34999847  15.50000000  45.87999725
C    20.29999924  15.21999931  44.92000198
C    21.60000038  14.82999992  45.27999878
C    21.93000031  14.75999928  46.63999939
C    20.95999908  14.86999989  47.58999634
C    19.64999962  15.18000031  47.27000427
C    15.52000046  16.14999962  46.27999878
C    14.88000011  16.03999901  47.56000137
C    13.50000000  15.98000050  47.70000076
C    23.34000015  14.65000057  47.04000092
H    23.65165901  15.05373955  48.00331116
H    18.76000023  15.13000011  49.27000046
H    17.78000069  15.88999939  44.40999985
H    19.89999962  15.25000000  43.90999603
H    22.39000130  14.68000031  44.54999924
H    21.18999863  14.81999969  48.66000366
H    13.03999996  15.69000053  48.64999771
H    23.90999985  15.15999985  46.24000168
H    23.57999992  13.57999992  47.01000214
S    16.03000069  13.02000046  51.90999985
C    18.73999977  12.65999985  51.27999878
C    17.40999985  12.71000004  50.86999893
C    17.02000046  12.46000099  49.45000076
C    18.09000015  12.02999973  48.57999802
C    19.44000053  12.07999992  48.94000244
C    20.50000000  11.63000011  47.98999786
C    21.81999969  11.59999943  48.39000320
C    22.11000061  11.80999947  49.77000427
C    21.11999893  12.25000000  50.61999893
C    19.76000023  12.42000008  50.26000214
C    15.57999992  12.46000099  49.36999893
C    14.98999977  12.90999985  50.54999924
C    13.63999939  13.25000000  50.63000107
C    23.55999947  11.61000061  50.22999573
H    23.84994888  12.03802013  51.18959427
H    19.00000000  12.69999981  52.34000397
H    17.87999916  11.82999992  47.52999878
H    20.17999840  11.09000015  47.11000061
H    22.60000038  11.25000000  47.71999741
H    21.40000153  12.18000031  51.66999817
H    13.15000057  13.86000061  51.38000107
H    23.95000076  10.57999992  50.19000244
H    24.17000008  12.22000027  49.54999924
S    12.18000031  12.05999947  47.15000153
C     9.47000027  12.43000031  47.95999908
C    10.80999947  12.63000011  48.18000031
C    11.31000042  13.15000057  49.38999939
C    10.42000008  13.60999966  50.31000137
C     9.04999924  13.60999966  50.07999802
C     8.14000034  14.19000053  51.03000259
C     6.83000040  14.28999996  50.61000061
C     6.30999994  13.81000042  49.34000015
C     7.13999987  13.17000008  48.50000000
C     8.55000019  13.00000000  48.88999939
C    12.79000092  12.84999943  49.58000183
C    13.35000038  12.36999989  48.40000153
C    14.73000050  12.18000031  48.27999878
C     4.94999981  14.17000008  48.94000244
H     4.62142324  13.74856472  47.98998642
H     9.15000057  12.02999973  47.00000000
H    10.82999992  13.94999981  51.25999832
H     8.47000027  14.61999989  51.97000122
H     6.17999983  14.88000011  51.25000000
H     6.80999994  12.90999985  47.49000168
H    15.08999920  11.85999966  47.30999756
H     4.90999985  15.25000000  48.74000168
H     4.19000006  13.94999981  49.69999695
