96

S    12.38999939  17.04000092  44.02000046
C     9.77999973  17.63000107  44.79999924
C    11.00000000  17.09000015  45.08999634
C    11.31000042  16.57999992  46.35000229
C    10.43000031  16.61000061  47.36999893
C     9.13999939  17.13000107  47.09999847
C     8.01999950  16.84999847  48.04999924
C     6.71000004  17.13000107  47.70999908
C     6.44000006  17.87999916  46.50000000
C     7.42000008  18.01000023  45.59999847
C     8.78999996  17.65999985  45.81999969
C    12.71000004  16.29999924  46.52999878
C    13.43999958  16.53000069  45.34000015
C    14.78999996  16.36000061  45.26000214
C     5.01999950  18.00000000  46.06999969
H     4.71550274  17.28950691  45.30150604
H     9.48999977  17.92000008  43.80000305
H    10.67000008  16.42000008  48.40999985
H     8.15999985  16.03000069  48.75000000
H     5.88999987  16.81999969  48.36000061
H     7.11999989  18.34000015  44.61000061
H    15.29999924  16.63999939  44.34000015
H     4.44999981  17.79999924  46.97999954
H     4.84000015  19.03000069  45.73999786
S    15.85999966  15.59999943  49.05000305
C    18.43000031  15.01999950  48.34000015
C    17.17000008  15.47000027  47.98999786
C    16.95000076  15.72000027  46.59999847
C    18.05999947  15.69000053  45.70999908
C    19.32999992  15.39000034  46.05999756
C    20.43000031  15.21999931  45.15999603
C    21.60000038  14.70000076  45.68000031
C    21.77000046  14.48999977  47.02999878
C    20.73999786  14.63000107  47.90999985
C    19.51000023  15.03999901  47.42000198
C    15.54999924  15.93999958  46.38000107
C    14.84000015  15.86999989  47.57999802
C    13.45999908  15.88999939  47.64999771
C    23.23999786  14.19000053  47.50999832
H    23.55197334  14.78558826  48.36793137
H    18.60999870  14.68000031  49.34999847
H    17.75000000  15.76000023  44.66999817
H    20.22999954  15.38000011  44.10999680
H    22.55000114  14.65000057  45.15999603
H    20.89999962  14.47999954  48.96999741
H    12.86000061  15.59000015  48.50999832
H    23.95000076  14.50000000  46.72999954
H    23.47999954  13.12000084  47.52999878
S    12.56000042  17.04000092  50.75000000
C     9.80000019  17.38000107  51.29000092
C    11.06999969  17.12000084  51.72000122
C    11.35000038  16.87000084  53.09999847
C    10.32999992  16.64999962  54.00000000
C     9.02000046  16.81999969  53.54999924
C     7.95000029  16.69999886  54.47999954
C     6.65999985  17.02999878  54.19000244
C     6.32999992  17.56000137  52.84999847
C     7.37999964  17.67000008  51.97000122
C     8.73999977  17.23999977  52.21000290
C    12.76999950  16.62999916  53.29999924
C    13.55999947  16.76000023  52.14000320
C    14.92000008  16.69999886  52.19999695
C     4.92000008  18.05999947  52.47000122
H     4.53976965  17.39459610  51.69491196
H     9.59999943  17.71999931  50.27000046
H    10.51000023  16.36999893  55.04000092
H     8.30000019  16.36000061  55.45000076
H     5.92000008  17.27000046  54.93999863
H     7.22000027  18.17000008  51.02000427
H    15.53999996  16.80999947  51.31999969
H     4.28000021  17.97000122  53.34999847
H     5.03000021  19.06999969  52.06999969
S    15.82999992  15.69000053  55.91999817
C    18.40999985  15.34999943  55.24000168
C    17.20000076  15.71000004  54.84000397
C    16.94000053  16.11999893  53.47000122
C    17.97000122  16.07999992  52.50000000
C    19.22000122  15.57999992  52.88999939
C    20.31999969  15.48999977  51.91999817
C    21.53000069  14.98000050  52.35000229
C    21.73999977  14.63999939  53.64999771
C    20.76999855  14.73000050  54.61999893
C    19.45000076  15.22999954  54.27999878
C    15.54999924  16.39999962  53.36000061
C    14.80999947  16.21999931  54.54999924
C    13.38000107  16.32999992  54.54999924
C    23.13999939  14.17000008  54.15000153
H    23.45859528  14.73478413  55.02613831
H    18.53999901  15.05000019  56.26999664
H    17.73999977  16.15999985  51.44000244
H    20.27000046  15.95000076  50.93999863
H    22.34999847  14.96999931  51.63000107
H    20.92000008  14.27000046  55.59000015
H    12.76000023  16.31999969  55.44000244
H    23.74000168  14.06000042  53.22999954
H    22.88999939  13.15000057  54.47999954
