96

S    12.38000011  16.97000122  44.22999954
C     9.72000027  17.47999954  44.93000031
C    10.93999958  17.01000023  45.33000183
C    11.18000031  16.63999939  46.65999985
C    10.19999981  16.63999939  47.67000198
C     8.93000031  17.05999947  47.22000122
C     7.88999987  17.14999962  48.15999985
C     6.67999983  17.69000053  47.81000137
C     6.48999977  18.26000023  46.56999969
C     7.42999983  18.22000122  45.63999939
C     8.69999981  17.53999901  45.91999817
C    12.56999969  16.23999977  46.83000183
C    13.34000015  16.46999931  45.59000015
C    14.68999958  16.27000046  45.47000122
C     5.05999994  18.48999977  46.11000061
H     4.76863575  17.85752678  45.27143860
H     9.52999973  17.95999908  43.97999573
H    10.44999981  16.26000023  48.64999771
H     8.07999992  16.59000015  49.06999969
H     5.84000015  17.56999969  48.48999786
H     7.18999958  18.42000008  44.59999847
H    15.21999931  16.50000000  44.55999756
H     4.44000006  18.38000107  47.01000214
H     4.97000027  19.55999947  45.90999985
S    15.62000084  15.31000042  49.20000076
C    18.36000061  15.06999969  48.54999924
C    17.07999992  15.52000046  48.20999908
C    16.79999924  15.98999977  46.90000153
C    17.79999924  16.14999962  45.97999954
C    19.06999969  15.62000084  46.24000168
C    20.03999901  15.50000000  45.22999573
C    21.24000168  14.85999966  45.47000122
C    21.60000038  14.56999969  46.79999924
C    20.66999817  14.61999989  47.81999969
C    19.37000084  15.14000034  47.56000137
C    15.34999943  16.01000023  46.65999985
C    14.60999966  15.76000023  47.83000183
C    13.22999954  15.80999947  47.91999817
C    23.02999878  14.32999992  47.11000061
H    23.30495453  14.69431496  48.09983444
H    18.59000015  14.63000107  49.52000046
H    17.56000137  16.36999893  44.93999863
H    19.88999939  16.00000000  44.27999878
H    21.91999817  14.73999977  44.62999725
H    20.96999931  14.27000046  48.80000305
H    12.71000004  15.75000000  48.87000275
H    23.52000046  14.82999992  46.26999664
H    23.26999855  13.27000046  46.95000076
S    16.32999992  13.07999992  52.29000092
C    18.96000099  12.61000061  51.44000244
C    17.67000008  12.51999950  51.22000122
C    17.09000015  12.00000000  49.98000336
C    18.02999878  11.56000042  49.02999878
C    19.42000008  11.51000023  49.29999924
C    20.38999939  11.00999928  48.34999847
C    21.75000000  11.09000015  48.67000198
C    22.21999931  11.54999924  49.94999695
C    21.28999901  12.15000057  50.84000015
C    19.93000031  12.15999985  50.52999878
C    15.73999977  12.25000000  49.79000092
C    15.19999981  12.64999962  51.00000000
C    13.89000034  13.01000023  51.13999939
C    23.61000061  11.23999977  50.44000244
H    23.78022957  11.58045959  51.46138000
H    19.34999847  13.01000023  52.36999893
H    17.63000107  11.11999989  48.11000061
H    19.96999931  10.71000004  47.39999771
H    22.52000046  10.73999977  47.97999954
H    21.61999893  12.50000000  51.81000137
H    13.60000038  13.40000057  52.11999893
H    23.82999802  10.18000031  50.30000305
H    24.34000015  11.72000027  49.75999832
S    12.38999939  12.38000011  47.50000000
C     9.80000019  12.94000053  48.33000183
C    11.17000008  12.90999985  48.66000366
C    11.69999981  13.28999996  49.98000336
C    10.78999996  13.64999962  50.97999954
C     9.39000034  13.71000099  50.70999908
C     8.47000027  14.14000034  51.70999908
C     7.20000029  14.47000027  51.38999939
C     6.71000004  14.06000042  50.11000061
C     7.59000015  13.63000011  49.13000107
C     9.00000000  13.43999958  49.34999847
C    13.10999966  13.02999973  49.98000336
C    13.66000080  12.50000000  48.76999664
C    14.93999958  11.96000004  48.68000031
C     5.28999996  14.47000027  49.64000320
H     5.08004379  14.23204994  48.59721756
H     9.44000053  12.51000023  47.39999771
H    10.98000050  13.90999985  52.02000046
H     8.85999966  14.32999992  52.70000076
H     6.63999987  15.06999969  52.09999847
H     7.16000032  13.38999939  48.15999985
H    15.36000061  11.52999973  47.77000046
H     5.27999973  15.54999924  49.82999802
H     4.65000010  13.94000053  50.35999680
