96

S    11.76000023  16.59000015  44.27999878
C     9.22000027  17.05000114  45.10000229
C    10.44999981  16.64999962  45.45000076
C    10.85000038  16.38000107  46.77000046
C     9.89000034  16.31999969  47.77999878
C     8.56000042  16.77000046  47.49000168
C     7.50999975  16.84000015  48.46000290
C     6.26999950  17.22999954  48.09999847
C     5.92999983  17.53000069  46.75000000
C     6.91999960  17.53999901  45.79999924
C     8.23000050  17.09000015  46.12999725
C    12.28999996  16.21999931  46.84999847
C    12.94000053  16.28000069  45.63000107
C    14.37000084  16.06999969  45.54999924
C     4.48999977  17.79000092  46.36000061
H     4.23810673  17.26462364  45.43878937
H     8.93000031  17.39999962  44.12000275
H    10.07999992  16.20000076  48.83999634
H     7.73999977  16.42000008  49.43000031
H     5.50000000  17.22999954  48.87000275
H     6.75000000  17.84000015  44.77000427
H    14.98999977  15.98999977  44.65999985
H     3.78999996  17.48999977  47.14000320
H     4.42000008  18.88000107  46.19999695
S    15.43000031  15.53999996  49.31999969
C    18.06999969  15.00000000  48.62999725
C    16.80999947  15.47000027  48.22000122
C    16.56999969  15.71000004  46.86000061
C    17.59000015  15.52999973  45.86999893
C    18.89000130  15.18000031  46.25000000
C    19.93999863  15.21000004  45.31000137
C    21.12999916  14.73000050  45.68999863
C    21.45999908  14.45000076  47.05999756
C    20.48000145  14.55999947  48.04999924
C    19.14999962  14.92000008  47.64999771
C    15.19000053  15.98999977  46.70999908
C    14.42000008  15.77999973  47.91999817
C    13.09000015  15.92000008  48.00000000
C    22.88000107  14.02999973  47.35000229
H    23.22753716  14.62577820  48.19401932
H    18.15999985  14.47000027  49.56999969
H    17.34000015  15.78999996  44.84000397
H    19.78999901  15.54999924  44.29000092
H    21.94000053  14.56999969  44.99000168
H    20.73999786  14.28999996  49.06999969
H    12.71000004  15.77999973  49.00000000
H    23.46999931  14.32000065  46.46999741
H    22.86000061  12.97000027  47.63999939
S    11.78999996  16.95999908  51.24000168
C     9.07999992  17.20999908  52.02999878
C    10.38000011  16.79000092  52.34000397
C    10.78999996  16.40999985  53.67000198
C     9.76000023  16.43000031  54.65999985
C     8.43999958  16.77999878  54.31999969
C     7.42000008  16.63999939  55.30000305
C     6.06999969  16.79999924  54.95999908
C     5.77000046  17.42000008  53.69999695
C     6.71999979  17.57999992  52.78999710
C     8.06999969  17.20000076  53.01000214
C    12.23000050  16.28000069  53.80000305
C    12.90999985  16.62999916  52.57999802
C    14.27000046  16.62999916  52.50000000
C     4.30999994  17.81999969  53.34000015
H     4.02241898  17.48332024  52.34398651
H     8.89999962  17.54999924  51.00999832
H     9.94999981  16.10000038  55.68000031
H     7.73999977  16.31999969  56.29000092
H     5.35000038  16.69999886  55.77000046
H     6.54999971  18.02999878  51.81999969
H    14.73000050  16.84999847  51.53999710
H     3.67000008  17.46999931  54.15999985
H     4.28000021  18.90999985  53.36999893
S    15.51000023  15.84000015  56.12999725
C    18.02999878  15.38000011  55.30000305
C    16.81999969  15.86999989  54.99000168
C    16.45000076  16.27000046  53.69999695
C    17.46999931  16.28000069  52.72999573
C    18.75000000  15.72000027  52.98999786
C    19.84000015  15.65999985  52.08000183
C    21.14000130  15.24000072  52.44999695
C    21.38000107  14.68999958  53.68999863
C    20.29000092  14.65999985  54.61999893
C    19.01000023  15.21000004  54.29999924
C    15.00000000  16.46999931  53.64999771
C    14.32999992  16.18000031  54.89999771
C    12.97000027  15.92000008  54.98000336
C    22.73999977  14.37999916  54.16999817
H    23.00934219  15.02500248  55.00637436
H    18.30000114  15.14999962  56.32999802
H    17.27000046  16.61000061  51.70999908
H    19.61000061  16.21999931  51.18000031
H    22.06000137  15.46000004  51.90999985
H    20.39999962  14.29999924  55.63999939
H    12.39999962  15.62999916  55.86000061
H    23.39999962  14.60000038  53.33000183
H    22.86000061  13.30999947  54.40999985
