96

S    12.57999992  17.43000031  44.29000092
C     9.85999966  17.85000038  45.00999832
C    11.13999939  17.36999893  45.28999710
C    11.46000004  16.84999847  46.58000183
C    10.46000004  16.69999886  47.45999908
C     9.15000057  17.09000015  47.25000000
C     8.10999966  16.79999924  48.18999863
C     6.81999969  17.13999939  47.95999908
C     6.48999977  17.69000053  46.70000076
C     7.44999981  18.00000000  45.70999908
C     8.82999992  17.72999954  45.98999786
C    12.88000011  16.62999916  46.83000183
C    13.60000038  16.95000076  45.61000061
C    14.96999931  17.05000114  45.63000107
C     5.03999996  17.97000122  46.31000137
H     4.70988274  17.31679153  45.50226593
H     9.63000011  18.04000092  43.96999741
H    10.67999935  15.98999977  48.25000000
H     8.48999977  16.26000023  49.06000137
H     6.02999973  17.07999992  48.69999695
H     7.16000032  18.43000031  44.75000000
H    15.52000046  17.34000015  44.72999954
H     4.30999994  17.98999977  47.11999893
H     5.07999992  19.02000046  45.97999954
S    15.93000031  15.57999992  49.25000000
C    18.59000015  15.15999985  48.60000229
C    17.40999985  15.81999969  48.36000061
C    17.06999969  16.35000038  47.08000183
C    17.98999977  16.29999924  46.04999924
C    19.30999947  15.78999996  46.35000229
C    20.36999893  15.82999992  45.38999939
C    21.61999893  15.31999969  45.72000122
C    21.84000015  14.73000050  47.01000214
C    20.82999992  14.65000057  47.90999985
C    19.61000061  15.18000031  47.62000275
C    15.65000057  16.69000053  46.81999969
C    14.89999962  16.22999954  47.97000122
C    13.55999947  16.35000038  48.04000092
C    23.23999786  14.27000046  47.58999634
H    23.71965599  14.98601055  48.25734711
H    18.78000069  14.61999989  49.52000046
H    17.88999939  16.67000008  45.04000092
H    20.10999870  16.32999992  44.45999908
H    22.44999886  15.26000023  45.01999664
H    21.05999947  14.47000027  48.95000076
H    12.97999954  16.14999962  48.93000031
H    23.80000114  14.21000004  46.63999939
H    23.19000053  13.27000046  48.02999878
S    16.10999870  12.64000034  52.04000092
C    18.79999924  12.20999908  51.42000198
C    17.47999954  12.25000000  51.00999832
C    17.10000038  12.05000019  49.65999985
C    18.12999916  11.87999916  48.67000198
C    19.52000046  11.71000004  49.08000183
C    20.51000214  11.19999981  48.15000153
C    21.76000214  10.78999996  48.55999756
C    22.13000107  11.21999931  49.87999725
C    21.19999886  11.61999893  50.83000183
C    19.85999870  11.82000065  50.48999786
C    15.65999985  12.25999928  49.52999878
C    15.00000000  12.61000061  50.72999954
C    13.64999962  12.89999962  50.91999817
C    23.55999947  11.14999962  50.37000275
H    23.71495628  11.28382397  51.44060135
H    19.00000000  12.43000031  52.47000122
H    17.80999947  11.77999973  47.63999939
H    20.22999954  11.28000069  47.09999847
H    22.46999931  10.46000004  47.80000305
H    21.44000053  11.84999943  51.86000061
H    13.27000046  13.14000034  51.91999817
H    24.04999924  10.29999924  49.87999725
H    24.13000107  11.96000004  49.91000366
S    12.28000069  12.67000008  47.32999802
C     9.59000015  13.04999924  48.13999939
C    10.95000076  12.94000053  48.54000092
C    11.44999981  13.09000015  49.86999893
C    10.57999992  13.32999992  50.84000015
C     9.18000031  13.50999928  50.54999924
C     8.19000053  13.89000034  51.49000168
C     6.84000015  14.15999985  51.18000031
C     6.38000011  13.97999954  49.85000229
C     7.26000023  13.53000069  48.88000107
C     8.65999985  13.27999973  49.22000122
C    12.88000011  12.97000027  49.84000397
C    13.45000076  12.69000053  48.56999969
C    14.78000069  12.25000000  48.43000031
C     4.96000004  14.39000034  49.40999985
H     4.68455029  13.92643833  48.46272278
H     9.32999992  13.02999973  47.09000015
H    11.02000046  13.50000000  51.81999969
H     8.51000023  14.28999996  52.43999863
H     6.30999994  14.84000015  51.84000015
H     7.03000021  13.53000069  47.81999969
H    15.11999989  11.90000057  47.45999908
H     4.80999994  15.47000027  49.52000046
H     4.32999992  13.86000061  50.13000107
