96

S    12.15999985  16.90000153  44.29000092
C     9.47000027  17.20999908  44.94999695
C    10.71000004  16.77000046  45.22999573
C    11.03999996  16.21000099  46.56000137
C    10.03000069  15.98000050  47.47000122
C     8.69000053  16.39000130  47.21000290
C     7.59000015  16.22999954  48.13000107
C     6.30999994  16.64999962  47.70999908
C     6.11999989  17.34000015  46.47999573
C     7.23999977  17.59000015  45.66999817
C     8.47000027  17.00000000  45.90000153
C    12.48999977  16.10000038  46.83000183
C    13.19000053  16.50000000  45.65999985
C    14.55000019  16.68000031  45.65000153
C     4.73000002  17.76000023  46.11000061
H     4.32605314  17.29337120  45.21156693
H     9.13999939  17.76000023  44.06999969
H    10.26000023  15.51000023  48.41999817
H     7.72000027  15.88000107  49.15000153
H     5.55999994  16.54999924  48.50000000
H     7.13999987  18.15999985  44.75000000
H    15.05000019  16.86000061  44.71000290
H     4.05999994  17.61999893  46.97000122
H     4.59999990  18.79999924  45.80999756
S    15.67999935  15.39000034  49.29000092
C    18.32999992  15.07999992  48.55999756
C    17.07999992  15.55999947  48.26000214
C    16.68000031  16.07999992  46.98999786
C    17.63000107  16.18000031  46.04999924
C    18.97999954  15.88999939  46.31000137
C    19.92000008  15.93000031  45.26000214
C    21.18999863  15.36999893  45.43000031
C    21.60000038  14.82999992  46.72999954
C    20.66999817  14.70000076  47.77999878
C    19.29999924  15.21999931  47.57999802
C    15.22999954  16.43000031  46.86000061
C    14.56999969  16.00000000  48.06000137
C    13.17999935  15.82999992  48.04000092
C    23.00000000  14.34999943  46.95000076
H    23.41630554  14.84664440  47.82643127
H    18.59000015  14.42999935  49.38999939
H    17.30999947  16.50000000  45.06000137
H    19.68000031  16.36000061  44.29000092
H    21.83000183  15.25000000  44.55999756
H    20.84000015  14.27000046  48.75999832
H    12.61000061  15.44999981  48.88000107
H    23.57000160  14.70000076  46.07999802
H    23.09000015  13.27000046  47.14000320
S    15.85000038  12.94000053  52.30999756
C    18.43000031  12.28000069  51.62000275
C    17.07999992  12.30999947  51.32999802
C    16.59000015  11.85999966  50.07999802
C    17.45000076  11.50000000  49.06000137
C    18.86999893  11.49000072  49.36000061
C    19.84000015  11.03999996  48.46000290
C    21.18000031  10.98999977  48.80000305
C    21.63000107  11.51999950  50.00999832
C    20.69000053  11.87000084  50.96000290
C    19.32999992  11.84000015  50.70000076
C    15.14000034  12.13000107  49.93000031
C    14.60000038  12.69999981  51.05999756
C    13.25000000  13.07999992  51.14999771
C    23.09000015  11.50000000  50.34999847
H    23.25897026  11.38031197  51.42015076
H    18.73999977  12.74000072  52.56000137
H    17.15999985  11.28000069  48.04000092
H    19.47000122  10.67999935  47.50000000
H    21.73999977  10.29000092  48.18999863
H    21.01000023  12.28000069  51.90999985
H    12.89999962  13.47000027  52.09999847
H    23.75999832  10.81999969  49.81999969
H    23.44000053  12.50000000  50.07999802
S    11.69999981  12.30999947  47.55000305
C     9.13000011  12.63000011  48.47999954
C    10.42000008  12.61000061  48.75999832
C    10.84000015  12.97999954  50.05000305
C     9.92999935  13.48000050  50.96000290
C     8.55000019  13.61999989  50.66999817
C     7.59999990  14.14999962  51.60999680
C     6.30999994  14.32999992  51.17000198
C     5.91000032  13.78999901  49.89999771
C     6.83000040  13.23999977  49.02000046
C     8.14999962  13.14000034  49.38999939
C    12.34000015  12.81999969  50.08999634
C    12.93000031  12.43999958  48.85000229
C    14.29999924  12.11999989  48.81999969
C     4.53000021  13.78999901  49.51000214
H     4.38065386  13.42730045  48.49302292
H     8.88000011  12.44999981  47.43999863
H    10.21999931  13.92000008  51.91999817
H     7.96000004  14.47000027  52.58999634
H     5.65000010  14.85999966  51.84000015
H     6.61999989  12.90999985  48.01000214
H    14.81999969  11.95000076  47.88000107
H     4.21000004  14.82999992  49.40999985
H     4.05999994  13.20000076  50.31000137
