96

S    12.06999969  16.73999977  44.20000076
C     9.44999981  17.28999901  45.05000305
C    10.64000034  16.62999916  45.31000137
C    11.03999996  16.10999870  46.59000015
C    10.18000031  16.17000008  47.61000061
C     8.93000031  16.77000046  47.44999695
C     7.88000011  16.72000122  48.41999817
C     6.61000013  17.28000069  48.26000214
C     6.38999987  17.92000008  46.95000076
C     7.36000013  18.12000084  46.00999832
C     8.56000042  17.38000107  46.17000198
C    12.44999981  16.03000069  46.72000122
C    13.14000034  16.26000023  45.47999954
C    14.55999947  16.18000031  45.37000275
C     4.92999983  18.22000122  46.55000305
H     4.62540293  17.81387138  45.58544159
H     9.28999996  17.71000099  44.06000137
H    10.47999954  15.65999985  48.52000427
H     8.02999973  16.10999870  49.31000137
H     5.79999971  17.02000046  48.94000244
H     7.13000011  18.61999893  45.06999969
H    15.15999985  16.13999939  44.45999908
H     4.36999989  17.88999939  47.43000031
H     4.86000013  19.30999947  46.50000000
S    15.72000027  15.93000031  49.19000244
C    18.35000038  15.26000023  48.44999695
C    17.11000061  15.67000008  48.11000061
C    16.72999954  15.86999989  46.72999954
C    17.73999977  15.90000057  45.77000046
C    19.07999992  15.72999954  46.13999939
C    20.15000153  15.92000008  45.22999573
C    21.40000153  15.44000053  45.52999878
C    21.70999908  14.93999958  46.81000137
C    20.73999786  14.88000011  47.81000137
C    19.37999916  15.27999973  47.47000122
C    15.32999992  16.04999924  46.59999847
C    14.57999992  15.92000008  47.78999710
C    13.23999977  15.88999939  47.84000015
C    23.15000153  14.55999947  47.06999969
H    23.32083130  14.86607075  48.10210419
H    18.54999924  14.75000000  49.40000153
H    17.46999931  16.10000038  44.72999954
H    19.93000031  16.15999985  44.20000076
H    22.14999962  15.46000004  44.73999786
H    21.07999992  14.42999935  48.74000168
H    12.76999950  15.52999973  48.75000000
H    23.72999954  15.11000061  46.31999969
H    23.32999992  13.48999977  46.90000153
S    11.73999977  17.38000107  50.86999893
C     9.07999992  17.67000008  51.59999847
C    10.34000015  17.35999870  51.93000031
C    10.77000046  16.94000053  53.23999786
C     9.77999973  16.82999992  54.22999954
C     8.43000031  17.20999908  53.95999908
C     7.39000034  17.20000076  54.95999908
C     6.12999964  17.60000038  54.64000320
C     5.82000017  17.94999886  53.27000046
C     6.78999996  18.02999878  52.29000092
C     8.10000038  17.70000076  52.58999634
C    12.20999908  16.72000122  53.36000061
C    12.88000011  17.01000023  52.16999817
C    14.22000027  16.93000031  52.02999878
C     4.48999977  18.38999939  52.83000183
H     3.98489451  17.69992638  52.15415573
H     8.80999947  17.98999977  50.59000015
H    10.06999969  16.44000053  55.20999908
H     7.63000011  16.97000122  55.98999786
H     5.31000042  17.53999901  55.34999847
H     6.51999998  18.34000015  51.29000092
H    14.60000038  17.11000061  51.03000259
H     3.86000013  18.60000038  53.69999695
H     4.63999987  19.30999947  52.25999832
S    15.47999954  15.95999908  55.70999908
C    18.05999947  15.77999973  55.01999664
C    16.84000015  16.23999977  54.72000122
C    16.47999954  16.57999992  53.36999893
C    17.50000000  16.63999939  52.45999908
C    18.77000046  16.18999863  52.74000168
C    19.82999992  16.05999947  51.77999878
C    21.09000015  15.64000034  52.15999985
C    21.31999969  15.11999989  53.50000000
C    20.30999947  15.29999924  54.40999985
C    19.06999969  15.88000107  54.09999847
C    15.01000023  16.72999954  53.18000031
C    14.39000034  16.51000023  54.40000153
C    12.96000004  16.39000130  54.52000046
C    22.67999840  14.65000057  53.85000229
H    23.04850197  15.16732121  54.73582458
H    18.38000107  15.21000004  55.90000153
H    17.40999985  16.87999916  51.39999771
H    19.64999962  16.27000046  50.72999954
H    21.90000153  15.62000084  51.44000244
H    20.46999931  14.85000038  55.38999939
H    12.53000069  16.14999962  55.48999786
H    23.25000000  14.96999931  52.97999954
H    22.85000038  13.56999969  53.96999741
