96

S    12.06999969  17.18000031  43.96999741
C     9.35000038  17.77000046  44.79999924
C    10.64000034  17.27000046  45.05000305
C    11.00000000  16.87000084  46.37000275
C     9.98999977  16.77999878  47.34000397
C     8.69000053  17.18000031  47.05999756
C     7.65999985  17.01000023  48.04000092
C     6.35999966  17.38000107  47.77999878
C     5.98999977  17.84000015  46.49000168
C     7.00000000  18.06999969  45.54000092
C     8.36999989  17.72999954  45.79000092
C    12.42000008  16.69999886  46.53999710
C    13.12999916  16.79000092  45.31000137
C    14.52999973  16.84999847  45.25000000
C     4.57999992  18.15999985  46.11999893
H     4.24411774  17.61419296  45.23830795
H     9.06000042  18.22000122  43.85000229
H    10.25000000  16.40999985  48.31999969
H     7.86000013  16.46999931  48.95999908
H     5.55999994  17.30999947  48.50999832
H     6.76999998  18.53000069  44.58000183
H    15.21000004  17.25000000  44.50000000
H     3.86000013  18.04000092  46.93999863
H     4.67999983  19.22999954  45.89000320
S    15.51000023  15.85999966  49.01000214
C    18.20999908  15.60999966  48.47000122
C    17.00000000  16.02000046  48.01000214
C    16.69999886  16.42000008  46.68000031
C    17.79000092  16.52000046  45.77000046
C    19.01000023  15.92000008  46.18999863
C    20.10999870  15.72999954  45.30000305
C    21.31000137  15.22999954  45.68000031
C    21.57999992  15.01000023  47.05999756
C    20.56999969  15.14000034  47.95999908
C    19.29000092  15.54999924  47.57999802
C    15.25000000  16.54000092  46.43000031
C    14.47000027  16.25000000  47.61000061
C    13.07000065  16.44000053  47.69000244
C    22.92000008  14.45000076  47.44999695
H    23.47579193  15.09129906  48.13405228
H    18.39999962  15.32999992  49.50000000
H    17.71999931  16.80999947  44.72999954
H    20.00000000  15.90999985  44.22999954
H    22.00000000  14.96000099  44.88999939
H    20.65000153  14.73000050  48.95999908
H    12.55000019  16.31000137  48.62999725
H    23.54999924  14.23999977  46.56999969
H    22.60999870  13.55000019  48.00000000
S    11.96000004  17.53000069  50.90000153
C     9.30999947  17.54999924  51.72000122
C    10.59999943  17.34000015  52.01000214
C    11.00999928  16.94000053  53.30999756
C    10.08999920  16.64999962  54.31000137
C     8.76000023  17.07999992  54.18000031
C     7.82000017  17.02000046  55.20999908
C     6.50000000  17.38000107  54.98000336
C     6.11999989  17.77000046  53.68000031
C     7.04999971  17.95999908  52.65999603
C     8.38000011  17.53999901  52.81999969
C    12.46000099  16.80999947  53.39000320
C    13.09999943  17.12000084  52.19999695
C    14.47999954  17.13999939  52.04000092
C     4.69999981  18.17000008  53.33000183
H     4.30826092  17.64768028  52.45717621
H     8.97999954  17.70000076  50.70000076
H    10.44000053  16.07999992  55.17000198
H     8.21000004  16.54999924  56.11000061
H     5.80999947  17.23999977  55.80999756
H     6.77999973  18.35000038  51.68000031
H    15.05000019  17.51000023  51.19999695
H     4.15999985  17.85000038  54.22999954
H     4.77999973  19.26000023  53.22999954
S    15.70000076  16.05999947  55.68000031
C    18.31999969  15.88000107  54.98000336
C    17.09000015  16.31999969  54.65000153
C    16.69000053  16.86000061  53.40999985
C    17.69000053  16.92000008  52.49000168
C    19.06999969  16.48999977  52.75000000
C    20.03999901  16.28000069  51.69000244
C    21.27000046  15.78999996  51.95000076
C    21.60000038  15.36999893  53.23999786
C    20.69000053  15.46000004  54.27000046
C    19.37000084  16.01000023  54.05000305
C    15.21000004  16.92000008  53.26000214
C    14.55000019  16.51000023  54.38999939
C    13.19000053  16.55999947  54.54999924
C    22.96999931  14.81999969  53.67000198
H    23.10466576  15.11059380  54.71188354
H    18.40999985  15.29999924  55.89000320
H    17.40999985  17.05999947  51.44000244
H    19.85000038  16.69000053  50.70000076
H    22.10000038  15.75000000  51.25000000
H    20.82999992  15.08999920  55.27999878
H    12.68000031  16.44000053  55.50000000
H    23.74000168  15.26999950  53.02999878
H    23.02000046  13.73999977  53.52000427
