96

S    12.50000000  16.88999939  44.10999680
C     9.89999962  17.54999924  45.06000137
C    11.13000011  16.86000061  45.20999908
C    11.51000023  16.38000107  46.45000076
C    10.54999924  16.45000076  47.43999863
C     9.19999981  16.87999916  47.35000229
C     8.11999989  16.55999947  48.23999786
C     6.90000010  17.05000114  47.84999847
C     6.67999983  17.81999969  46.66999817
C     7.68000031  18.13999939  45.79000092
C     8.97999954  17.61000061  46.09000397
C    12.96000004  16.23999977  46.63000107
C    13.63000011  16.46000099  45.43000031
C    15.01999950  16.36000061  45.34000015
C     5.28999996  18.19000053  46.31000137
H     4.87859535  17.61545181  45.48009872
H     9.56999969  17.98999977  44.12000275
H    10.77000046  15.93999958  48.37999725
H     8.26000023  15.97000027  49.13999939
H     6.03999996  16.84999847  48.47999954
H     7.44000006  18.53000069  44.79999924
H    15.59000015  16.88999939  44.56999969
H     4.69999981  17.97999954  47.22000122
H     5.22000027  19.27999878  46.23000336
S    16.09000015  15.29000092  48.93000031
C    18.81999969  15.03999901  48.20000076
C    17.46999931  15.26999950  47.87000275
C    17.19000053  15.76000023  46.58000183
C    18.15000153  16.07999992  45.63000107
C    19.51000023  15.81999969  45.96000290
C    20.63999939  15.88000107  45.06000137
C    21.90999985  15.27999973  45.20999908
C    22.11999893  14.68000031  46.56999969
C    21.07999992  14.55999947  47.43999863
C    19.78999901  15.26999950  47.25000000
C    15.76000023  15.78999996  46.45000076
C    15.01000023  15.70000076  47.64999771
C    13.73000050  15.98999977  47.83000183
C    23.51000023  14.37000084  47.04999924
H    23.84366798  15.01557350  47.86240387
H    19.05999947  14.48999977  49.09999847
H    17.94000053  16.38000107  44.61000061
H    20.35000038  16.54000092  44.25000000
H    22.63999939  15.36000061  44.40999985
H    21.15999985  13.94999981  48.33000183
H    13.32999992  15.93000031  48.83999634
H    24.20000076  14.59000015  46.23000336
H    23.59000015  13.28999996  47.25999832
S    15.92000008  13.27999973  52.04999924
C    18.52000046  12.61999989  51.32999802
C    17.18000031  12.51999950  51.05999756
C    16.63999939  11.96000004  49.85000229
C    17.48999977  11.43000031  48.93000031
C    18.89999962  11.38000011  49.26000214
C    19.81999969  10.88999939  48.31999969
C    21.18999863  10.90000057  48.52000427
C    21.73999977  11.56999969  49.66999817
C    20.84000015  12.10000038  50.56000137
C    19.47000122  11.97000027  50.44000244
C    15.22999954  12.27000046  49.65999985
C    14.65999985  12.97999954  50.79000092
C    13.31999969  13.40999985  50.84999847
C    23.22000122  11.39000034  49.99000168
H    23.49404907  11.63593960  51.01592255
H    18.84000015  13.36999989  52.04999924
H    17.06999969  11.03000069  48.02000046
H    19.45000076  10.46000004  47.38999939
H    21.73999977  10.26999950  47.84000015
H    21.15999985  12.56000042  51.49000168
H    12.88000011  13.96000004  51.68000031
H    23.59000015  10.36000061  50.05000305
H    23.90999985  11.85999966  49.27000046
S    11.87000084  12.10000038  47.37999725
C     9.19999981  12.76000023  48.13000107
C    10.59000015  12.79000092  48.36999893
C    11.11999989  13.34000015  49.55999756
C    10.31000042  13.71999931  50.59000015
C     8.92000008  13.71999931  50.52000046
C     8.09000015  14.04999924  51.60999680
C     6.71000004  13.97999954  51.45000076
C     6.17999983  13.71000099  50.20000076
C     6.96000004  13.22000027  49.16999817
C     8.34000015  13.28999996  49.22999954
C    12.53999901  13.07999992  49.75000000
C    13.14000034  12.53000069  48.61000061
C    14.45000076  12.10999966  48.50000000
C     4.76999998  14.00000000  49.93000031
H     4.51478195  13.57923508  48.95741653
H     8.63000011  12.15999985  47.42000198
H    10.71000004  14.02999973  51.56000137
H     8.52999973  14.61999989  52.42000198
H     5.98999977  14.40000057  52.15000153
H     6.48000002  13.00000000  48.20999908
H    14.80999947  11.61000061  47.60000229
H     4.63000011  15.06999969  50.11000061
H     4.11999989  13.57999992  50.70000076
