96

S    12.20999908  16.31999969  44.02999878
C     9.59999943  16.87999916  44.77000427
C    10.88000107  16.50000000  45.08999634
C    11.23000050  16.17000008  46.42000198
C    10.22999954  16.18000031  47.38999939
C     8.89999962  16.60000038  47.14000320
C     7.92000008  16.77000046  48.11000061
C     6.67000008  17.20999908  47.72999573
C     6.35999966  17.69000053  46.43000031
C     7.36000013  17.51000023  45.44000244
C     8.61999989  16.92000008  45.72000122
C    12.61000061  15.95999908  46.62000275
C    13.30000019  16.03999901  45.43000031
C    14.67000008  16.05999947  45.40000153
C     5.05000019  18.18000031  45.94999695
H     4.68549776  17.59679604  45.10435486
H     9.23999977  17.31999969  43.85000229
H    10.69000053  16.20000076  48.36999893
H     8.13000011  16.40999985  49.10999680
H     5.86000013  17.26000023  48.44999695
H     7.30000019  17.79000092  44.38999939
H    15.18000031  16.29999924  44.47999954
H     4.23999977  18.20000076  46.69000244
H     5.31000042  19.20999908  45.68000031
S    15.72999954  15.43000031  49.16999817
C    18.42000008  14.94999981  48.55999756
C    17.15999985  15.34999943  48.15999985
C    16.86000061  15.60999966  46.75000000
C    17.90999985  15.65000057  45.89000320
C    19.17000008  15.19999981  46.25999832
C    20.15999985  15.26000023  45.27000046
C    21.44000053  14.93999958  45.63000107
C    21.83000183  14.68000031  46.97000122
C    20.86000061  14.65000057  47.95999908
C    19.47000122  14.84000015  47.60000229
C    15.39000034  15.81999969  46.56999969
C    14.70000076  15.65000057  47.77999878
C    13.30999947  15.70000076  47.84000015
C    23.25000000  14.27000046  47.29999924
H    23.54418182  14.87937546  48.15452957
H    18.67000008  14.68999958  49.59000015
H    17.84000015  15.92000008  44.84000397
H    19.84000015  15.64000034  44.31000137
H    22.26000023  15.10000038  44.93000031
H    21.15999985  14.63000107  49.00000000
H    12.81000042  15.67999935  48.80000305
H    23.94000053  14.35999966  46.45000076
H    23.38999939  13.22000027  47.58999634
S    11.98999977  17.05000114  50.97000122
C     9.36999989  17.61000061  51.63000107
C    10.60999966  17.14999962  51.98999786
C    10.92000008  16.73999977  53.29000092
C     9.96000004  16.82999992  54.29999924
C     8.63000011  17.27000046  53.99000168
C     7.55000019  17.14999962  54.92000198
C     6.23000050  17.30999947  54.50000000
C     5.93999958  17.72999954  53.18999863
C     6.98999977  17.89999962  52.35000229
C     8.36000061  17.65999985  52.63999939
C    12.31999969  16.50000000  53.47999954
C    13.09000015  16.68000031  52.29999924
C    14.47999954  16.72999954  52.23999786
C     4.55999994  17.97000122  52.77000046
H     4.20896816  17.30375671  51.98196793
H     9.19000053  17.82999992  50.58000183
H    10.10000038  16.23999977  55.20999908
H     7.73000002  16.81999969  55.93999863
H     5.44000053  17.13999939  55.21999741
H     6.80000019  18.15999985  51.31000137
H    14.98000050  16.75000000  51.27999878
H     3.84999990  17.86999893  53.59000397
H     4.61000013  19.00000000  52.38999939
S    15.43000031  15.54999924  55.93000031
C    18.20999908  15.52000046  55.40000153
C    16.90000153  15.75000000  54.98000336
C    16.65999985  16.35000038  53.70999908
C    17.71999931  16.46000099  52.78999710
C    19.02000046  15.98999977  53.15999985
C    20.10000038  16.11999893  52.31999969
C    21.34000015  15.71000004  52.77999878
C    21.61000061  15.15999985  54.00000000
C    20.56999969  15.11999989  54.86000061
C    19.25000000  15.53999996  54.52000046
C    15.19000053  16.61000061  53.48999786
C    14.40999985  16.21999931  54.61999893
C    13.00000000  16.27000046  54.61000061
C    22.95999908  14.80000019  54.38999939
H    23.32446671  15.29945374  55.28766632
H    18.39999962  15.29999924  56.44000244
H    17.67000008  16.84000015  51.77999878
H    20.03000069  16.31999969  51.25000000
H    22.20999908  15.70000076  52.12999725
H    20.69999886  14.73000050  55.86999893
H    12.46000099  16.17000008  55.54999924
H    23.61999893  15.11000061  53.56999969
H    23.08000183  13.71999931  54.52000046
