96

S    12.64999962  16.76000023  43.80000305
C     9.98000050  17.13000107  44.52999878
C    11.21999931  16.69999886  44.87999725
C    11.54000092  16.28999901  46.22000122
C    10.53999996  16.23999977  47.15999985
C     9.22000027  16.50000000  46.77000046
C     8.10000038  16.28000069  47.63999939
C     6.86999989  16.68000031  47.34000397
C     6.67000008  17.48999977  46.23000336
C     7.67000008  17.64999962  45.27000046
C     8.89999962  17.05999947  45.50000000
C    12.97000027  16.11999893  46.40999603
C    13.66000080  16.45000076  45.20000076
C    15.03999901  16.57999992  45.20000076
C     5.26000023  17.97999954  45.94999695
H     4.77519751  17.34062195  45.21225357
H     9.80000019  17.39999962  43.48999786
H    10.80000019  15.90000057  48.15999985
H     8.14999962  15.86999989  48.64999771
H     6.05999994  16.65999985  48.06999969
H     7.63000011  18.23999977  44.36000061
H    15.51000023  16.60000038  44.22000122
H     4.59999990  18.02999878  46.81999969
H     5.32000017  19.03000069  45.63999939
S    16.07999992  15.60999966  48.87000275
C    18.73999977  15.18000031  48.15999985
C    17.48999977  15.62000084  47.81000137
C    17.20000076  16.06999969  46.49000168
C    18.22999954  16.04999924  45.56999969
C    19.54000092  15.67000008  45.89000320
C    20.58000183  15.52999973  44.97000122
C    21.78999901  14.96000099  45.34000015
C    22.04999924  14.68000031  46.70999908
C    21.07999992  14.81999969  47.58999634
C    19.78000069  15.26999950  47.27000427
C    15.77999973  16.25000000  46.36000061
C    15.05000019  16.10000038  47.56999969
C    13.63999939  15.95999908  47.56999969
C    23.40999985  14.26000023  47.16999817
H    23.71582413  14.91534042  47.98553467
H    18.90999985  14.78000069  49.15999985
H    18.07999992  16.39999962  44.54999924
H    20.38000107  15.86999989  43.95999908
H    22.56000137  15.06999969  44.58000183
H    21.19999886  14.57999992  48.63999939
H    13.15999985  15.80000019  48.54000092
H    24.13000107  14.19999981  46.35000229
H    23.22999954  13.25000000  47.56000137
S    11.79999924  16.88999939  50.72999954
C     9.19000053  17.46000099  51.30000305
C    10.36000061  17.02999878  51.70000076
C    10.62999916  16.67000008  53.04999924
C     9.59000015  16.62999916  54.02000046
C     8.28999996  17.04000092  53.62999725
C     7.17000008  17.12000084  54.52999878
C     5.91000032  17.56000137  54.13999939
C     5.77000046  17.86000061  52.83000183
C     6.76999998  17.81999969  51.93000031
C     8.06999969  17.43999863  52.27000427
C    12.00000000  16.38000107  53.27999878
C    12.81000042  16.57999992  52.14000320
C    14.19999981  16.73999977  52.19999695
C     4.39000034  18.30999947  52.43999863
H     3.94991970  17.52362633  51.82677460
H     9.09000015  17.79999924  50.27000046
H     9.73999977  16.28000069  55.02999878
H     7.23000002  16.90000153  55.59999847
H     5.14999962  17.52000046  54.92000198
H     6.67000008  18.30000114  50.96000290
H    14.80000019  17.04000092  51.33999634
H     3.76999998  18.45999908  53.33000183
H     4.46999979  19.29000092  51.95999908
S    14.96999931  15.67999935  55.84999847
C    17.67000008  15.46000004  55.34000015
C    16.46999931  15.90999985  54.94999695
C    16.23999977  16.26000023  53.61999893
C    17.30999947  16.28000069  52.72999573
C    18.55999947  15.84000015  53.11999893
C    19.61000061  15.71000004  52.18999863
C    20.93000031  15.47000027  52.63000107
C    21.09999847  15.03999901  53.95999908
C    20.03999901  15.01000023  54.84000397
C    18.78999901  15.55999947  54.47999954
C    14.81999969  16.43000031  53.36999893
C    13.97999954  16.11999893  54.47999954
C    12.64000034  16.10000038  54.47999954
C    22.55000114  14.57999992  54.27000046
H    22.80246925  14.71324730  55.32195282
H    17.71000099  14.93999958  56.30000305
H    17.11000061  16.40999985  51.66999817
H    19.47999954  15.76000023  51.11000061
H    21.73999977  15.22999954  51.95000076
H    20.17000008  14.59000015  55.84000015
H    12.05999947  16.03999901  55.40000153
H    23.18000031  15.15999985  53.59000397
H    22.80999947  13.53000069  54.05000305
