96

S    12.15000057  17.13000107  44.27999878
C     9.42000008  17.30999947  44.79000092
C    10.67000008  17.05999947  45.27000046
C    10.95999908  16.84999847  46.66999817
C     9.86999989  16.67000008  47.50999832
C     8.59000015  16.90999985  47.05999756
C     7.49000025  16.87999916  48.04999924
C     6.32000017  17.35999870  47.67000198
C     6.10000038  17.72999954  46.33999634
C     7.07999992  17.60000038  45.40000153
C     8.38000011  17.26000023  45.70999908
C    12.41000080  16.67000008  46.83000183
C    13.15000057  16.81999969  45.65000153
C    14.52999973  16.82999992  45.59999847
C     4.76000023  18.19000053  45.84999847
H     4.45050383  17.57100677  45.00788116
H     9.19000053  17.68000031  43.79000092
H     9.88000011  16.31000137  48.54000092
H     7.79999971  16.64999962  49.06999969
H     5.63000011  17.61999893  48.47000122
H     6.90999985  17.79999924  44.34999847
H    15.11999989  17.00000000  44.71000290
H     4.15000010  18.15000153  46.75000000
H     4.74000025  19.27000046  45.65999985
S    15.62000084  16.04999924  49.22999954
C    18.38999939  15.71000004  48.36000061
C    17.11000061  16.13999939  48.11999893
C    16.70999908  16.53000069  46.81000137
C    17.68000031  16.52000046  45.77999878
C    18.97999954  15.93000031  45.86000061
C    19.93000031  15.86999989  44.79999924
C    21.21999931  15.47000027  45.18000031
C    21.59000015  15.11999989  46.47999573
C    20.63999939  15.08999920  47.49000168
C    19.29999924  15.55999947  47.25999832
C    15.26000023  16.57999992  46.72000122
C    14.52000046  16.42000008  47.91999817
C    13.09999943  16.36000061  48.01000214
C    23.05000114  14.96000099  46.84000015
H    23.28856277  15.32868767  47.83762741
H    18.67000008  15.52999973  49.38999939
H    17.43000031  16.97999954  44.82999802
H    19.69000053  16.22999954  43.80000305
H    21.97999954  15.52000046  44.40000153
H    20.86999893  15.00000000  48.54999924
H    12.61999989  16.05999947  48.93000031
H    23.75000000  15.29000092  46.06999969
H    23.23999786  13.88000011  46.81999969
S    12.06999969  17.60000038  51.13999939
C     9.43000031  17.97999954  51.72000122
C    10.69000053  17.52000046  52.11999893
C    10.98999977  17.11000061  53.44999695
C     9.92000008  16.88999939  54.29000092
C     8.64999962  17.28999901  53.92000198
C     7.59999990  17.20000076  54.91000366
C     6.28000021  17.43999863  54.58000183
C     5.98999977  17.97000122  53.29999924
C     6.94000006  18.17000008  52.35000229
C     8.32999992  17.84000015  52.61000061
C    12.46000099  17.02000046  53.64999771
C    13.15999985  17.22999954  52.42000198
C    14.53999996  17.10000038  52.36999893
C     4.56999969  18.45999908  52.81000137
H     4.23677588  17.95291901  51.90449905
H     9.10000038  18.42000008  50.79000092
H    10.11000061  16.84000015  55.35999680
H     7.88000011  16.90000153  55.91999817
H     5.49000025  17.27000046  55.31000137
H     6.76999998  18.61999893  51.37000275
H    15.07999992  17.42000008  51.49000168
H     3.84000015  18.34000015  53.61000061
H     4.61000013  19.55000114  52.68000031
S    15.52999973  15.81999969  56.06999969
C    18.22000122  15.59999943  55.26000214
C    16.95999908  16.00000000  54.95999908
C    16.62999916  16.43000031  53.66000366
C    17.61000061  16.53000069  52.69000244
C    18.92000008  16.13999939  52.94000244
C    19.96999931  16.26000023  52.02000046
C    21.30000114  15.98000050  52.32999802
C    21.60000038  15.39999962  53.57999802
C    20.59000015  15.26000023  54.52999878
C    19.23999977  15.71000004  54.27999878
C    15.19999981  16.69000053  53.53000259
C    14.47999954  16.39999962  54.73999786
C    13.12000084  16.46000099  54.75000000
C    22.93999863  14.81999969  53.97999573
H    23.29567146  15.23373985  54.92361450
H    18.46999931  15.10000038  56.18999863
H    17.26000023  16.84000015  51.70999908
H    19.78000069  16.70999908  51.04999924
H    22.11000061  16.09000015  51.62000275
H    20.81000137  14.77000046  55.47000122
H    12.56000042  15.98000050  55.54999924
H    23.64999962  14.96000099  53.15000153
H    22.84000015  13.73999977  54.18000031
