96

S    12.10999966  16.81999969  44.26000214
C     9.44999981  17.07999992  44.97000122
C    10.72000027  16.69999886  45.30000305
C    11.05000019  16.20000076  46.59999847
C    10.03999901  16.27000046  47.62000275
C     8.73999977  16.70999908  47.27000427
C     7.65999985  16.54000092  48.20000076
C     6.39999962  16.87999916  47.81000137
C     6.09000015  17.39999962  46.52000046
C     7.11999989  17.56999969  45.61000061
C     8.42000008  17.13000107  45.94999695
C    12.51000023  15.95000076  46.70000076
C    13.21000004  16.35000038  45.56999969
C    14.57999992  16.20000076  45.54000092
C     4.59999990  17.68000031  46.13999939
H     4.30403090  17.19904900  45.20769501
H     9.22999954  17.31999969  43.93000031
H    10.22999954  15.78999996  48.56999969
H     7.90999985  16.10000038  49.15999985
H     5.60999966  16.63999939  48.52000427
H     7.04999971  18.02000046  44.61999893
H    15.01999950  16.54999924  44.61000061
H     3.84000015  17.46999931  46.90999985
H     4.53999996  18.76000023  45.96000290
S    15.52999973  15.19000053  49.16999817
C    18.22999954  14.85000038  48.50999832
C    16.95999908  15.18000031  48.08000183
C    16.69999886  15.54999924  46.79999924
C    17.72999954  15.72999954  45.89000320
C    19.09000015  15.51000023  46.31999969
C    20.20999908  15.67999935  45.45000076
C    21.44000053  15.14999962  45.77999878
C    21.63000107  14.57999992  47.08000183
C    20.59000015  14.40000057  47.97999954
C    19.34999847  14.96000099  47.61000061
C    15.32999992  15.77999973  46.65000153
C    14.60000038  15.53999996  47.80000305
C    13.25000000  15.67999935  47.83000183
C    23.05000114  14.11000061  47.45999908
H    23.42553902  14.57594585  48.37102509
H    18.44000053  14.34999943  49.45999908
H    17.61000061  16.04999924  44.86000061
H    20.06999969  16.07999992  44.45000076
H    22.27999878  15.03999901  45.10000229
H    20.56999969  13.81000042  48.88999939
H    12.76999950  15.67999935  48.81000137
H    23.62999916  14.28999996  46.53999710
H    22.86999893  13.03999996  47.57999802
S    11.77000046  16.97999954  50.93999863
C     9.10000038  17.38000107  51.70000076
C    10.34999943  17.00000000  51.98999786
C    10.75000000  16.68000031  53.36000061
C     9.80000019  16.61000061  54.36000061
C     8.46000004  16.95999908  54.06999969
C     7.46000004  16.94000053  55.08999634
C     6.15999985  17.40999985  54.79000092
C     5.91000032  17.82999992  53.46000290
C     6.81999969  17.88999939  52.43000031
C     8.09000015  17.35000038  52.72999573
C    12.17000008  16.44000053  53.47999954
C    12.84999943  16.65999985  52.27000427
C    14.19000053  16.48999977  52.09999847
C     4.53000021  18.26000023  53.00000000
H     4.21153355  17.66552925  52.14368057
H     8.92000008  17.87999916  50.75000000
H    10.07999992  16.27000046  55.34999847
H     7.73000002  16.56999969  56.07999802
H     5.56999969  17.51000023  55.70000076
H     6.63000011  18.38999939  51.47999573
H    14.63999939  16.67000008  51.12999725
H     3.75999975  18.13999939  53.77999878
H     4.57999992  19.31999969  52.75000000
S    15.40999985  15.59999943  55.76000214
C    18.02999878  15.03000069  55.00999832
C    16.77999878  15.52000046  54.62999725
C    16.40999985  15.88000107  53.30999756
C    17.31999969  16.02000046  52.36000061
C    18.68000031  15.67000008  52.64999771
C    19.73999977  15.77999973  51.77000046
C    21.02999878  15.32999992  52.04999924
C    21.31999969  14.75000000  53.29999924
C    20.36000061  14.84000015  54.29000092
C    19.00000000  15.15999985  53.95999908
C    14.94999981  16.06999969  53.18000031
C    14.29999924  15.93000031  54.43000031
C    12.90999985  16.06999969  54.59000015
C    22.65000153  14.32000065  53.67000198
H    22.92491341  14.79748344  54.61049652
H    18.32999992  14.63999939  55.98999786
H    17.00000000  16.38000107  51.38000107
H    19.56999969  16.25000000  50.80999756
H    21.76000214  15.27999973  51.24000168
H    20.58000183  14.63999939  55.33000183
H    12.46000099  15.97000027  55.56999969
H    23.38999939  14.60000038  52.90000153
H    22.70000076  13.22999954  53.81999969
