96

S    12.50000000  16.60000038  44.15999985
C     9.84000015  16.75000000  44.84000397
C    11.06999969  16.51000023  45.20999908
C    11.46000004  16.21000099  46.58000183
C    10.47000027  16.00000000  47.47000122
C     9.09000015  16.32999992  47.11000061
C     8.00000000  16.47999954  48.06999969
C     6.80999994  16.86000061  47.72999573
C     6.48000002  17.20000076  46.44000244
C     7.42000008  17.20000076  45.45999908
C     8.78999996  16.77999878  45.77000046
C    12.86999893  16.14999962  46.79999924
C    13.61999989  16.28999901  45.56999969
C    14.91000080  16.31000137  45.59999847
C     5.13000011  17.78000069  46.13999939
H     4.69804668  17.34096527  45.24068451
H     9.61000061  16.95000076  43.79000092
H    10.72000027  15.71000004  48.47999954
H     8.30000019  16.18999863  49.06999969
H     5.98999977  16.97000122  48.43999863
H     7.28999996  17.79000092  44.55999756
H    15.47999954  16.31999969  44.66999817
H     4.46000004  17.63000107  47.00000000
H     5.23999977  18.86999893  46.02000427
S    15.95000076  15.52000046  49.33000183
C    18.60000038  15.01000023  48.54000092
C    17.36999893  15.54999924  48.23999786
C    17.04000092  15.93000031  46.97000122
C    18.04000092  15.98999977  46.00999832
C    19.38999939  15.67000008  46.33999634
C    20.42000008  15.62000084  45.33000183
C    21.70999908  15.31999969  45.68999863
C    22.01999855  14.98000050  47.01000214
C    21.04000092  14.86999989  47.91999817
C    19.69000053  15.19999981  47.64999771
C    15.59999943  16.01000023  46.76000214
C    14.89999962  15.85999966  47.95000076
C    13.52000046  15.93999958  48.00000000
C    23.36999893  14.30999947  47.28000259
H    23.72745132  14.55802822  48.27940750
H    18.76000023  14.42000008  49.43999863
H    17.71999931  15.93000031  44.97000122
H    20.10000038  15.59000015  44.29000092
H    22.43000031  15.06999969  44.92000198
H    21.09000015  14.34999943  48.88000107
H    13.02999973  15.90000057  48.96999741
H    24.09000015  14.70999908  46.55000305
H    23.26999855  13.22000027  47.18999863
S    11.80999947  16.82999992  51.23000336
C     9.21000004  17.56000137  51.98999786
C    10.42000008  17.01000023  52.32999802
C    10.78999996  16.59000015  53.64999771
C     9.81000042  16.50000000  54.59999847
C     8.43999958  16.90999985  54.26000214
C     7.35000038  16.69000053  55.13999939
C     6.09000015  17.09000015  54.75999832
C     5.84000015  17.71999931  53.54000092
C     6.84000015  17.94000053  52.63000107
C     8.17000008  17.46999931  52.94000244
C    12.20000076  16.21999931  53.70999908
C    12.86999893  16.43000031  52.49000168
C    14.27999973  16.46999931  52.31999969
C     4.44000006  18.09000015  53.18999863
H     4.13137627  17.54289436  52.29919815
H     8.93999958  17.98999977  51.03000259
H     9.96999931  15.88000107  55.47000122
H     7.49000025  16.06999969  56.03000259
H     5.26999998  16.81999969  55.43000031
H     6.61999989  18.22999954  51.60999680
H    14.70999908  16.81999969  51.38000107
H     3.82999992  17.71000099  54.02000046
H     4.39000034  19.18000031  53.09000015
S    15.34999943  15.14999962  55.89000320
C    17.97999954  15.10000038  55.24000168
C    16.72000122  15.39000034  54.86000061
C    16.39999962  15.81999969  53.54999924
C    17.35000038  16.07999992  52.63999939
C    18.65999985  15.65999985  52.84999847
C    19.70000076  15.62999916  51.90999985
C    20.84000015  15.01999950  52.11000061
C    21.27000046  14.53999996  53.36000061
C    20.30999947  14.59000015  54.38000107
C    18.96999931  15.11000061  54.18000031
C    14.98000050  16.10999870  53.46000290
C    14.28999996  15.84000015  54.66999817
C    12.94000053  15.88000107  54.86999893
C    22.72999954  14.30999947  53.75000000
H    23.00102043  14.78785133  54.69143677
H    18.20000076  14.65000057  56.19999695
H    17.10000038  16.59000015  51.70999908
H    19.37000084  16.00000000  50.93999863
H    21.61999893  15.06000042  51.33999634
H    20.62000084  14.34000015  55.38999939
H    12.44999981  15.71000004  55.81999969
H    23.32999992  14.73999977  52.93000031
H    23.06999969  13.27000046  53.69999695
