96

S    12.09000015  17.01000023  44.31000137
C     9.40999985  17.15999985  44.98000336
C    10.71000004  16.77999878  45.30000305
C    11.05000019  16.43000031  46.69000244
C    10.01999950  16.43000031  47.63999939
C     8.75000000  16.77000046  47.27000427
C     7.67000008  16.77000046  48.20000076
C     6.38000011  17.14999962  47.77999878
C     6.23000050  17.79000092  46.59000015
C     7.26000023  17.87999916  45.72999954
C     8.47999954  17.22999954  45.97999954
C    12.46999931  16.31000137  46.86000061
C    13.12999916  16.64999962  45.68000031
C    14.52000046  16.61999893  45.59999847
C     4.85000038  18.07999992  46.11999893
H     4.52323580  17.35543442  45.37412262
H     9.13999939  17.65999985  44.05000305
H    10.19000053  16.29999924  48.69999695
H     7.88000011  16.46000099  49.22000122
H     5.46999979  17.10000038  48.36000061
H     7.09999990  18.27999878  44.72999954
H    15.05000019  16.70999908  44.65999985
H     4.19999981  17.88999939  46.97999954
H     4.63999987  19.12999916  45.87999725
S    15.72000027  15.36999893  49.18000031
C    18.32999992  14.94999981  48.29000092
C    17.12000084  15.46000004  48.09000015
C    16.70999908  16.03000069  46.81999969
C    17.68000031  16.09000015  45.83000183
C    19.02000046  15.59999943  46.04000092
C    20.06999969  15.71000004  45.13999939
C    21.38000107  15.36999893  45.52000046
C    21.67000008  14.82999992  46.79999924
C    20.63999939  14.78999996  47.72999573
C    19.32999992  15.13000011  47.31999969
C    15.24000072  16.31000137  46.72000122
C    14.60999966  16.02000046  47.95999908
C    13.22000027  15.98999977  47.98999786
C    23.08000183  14.42999935  47.14000320
H    23.45529938  14.87025452  48.06381607
H    18.54999924  14.46000004  49.23999786
H    17.39999962  16.56999969  44.88999939
H    19.81999969  16.15999985  44.18000031
H    22.18000031  15.32999992  44.78000259
H    20.85000038  14.32999992  48.68999863
H    12.64000034  15.57999992  48.81999969
H    23.81999969  14.61999989  46.33999634
H    23.05000114  13.32999992  47.18999863
S    11.76000023  17.19000053  51.04999924
C     9.07999992  17.61999893  51.79999924
C    10.31999969  17.05999947  52.09000015
C    10.60999966  16.54000092  53.40999985
C     9.67000008  16.46999931  54.36999893
C     8.31999969  16.94000053  54.06999969
C     7.18999958  17.01000023  55.04000092
C     5.97000027  17.38000107  54.69999695
C     5.65999985  17.75000000  53.34999847
C     6.70000029  17.86000061  52.43000031
C     8.01999950  17.47999954  52.77000046
C    12.09000015  16.42000008  53.56999969
C    12.79999924  16.69999886  52.36999893
C    14.21000004  16.77999878  52.36000061
C     4.34999990  18.23999977  52.81999969
H     3.95176411  17.70419121  51.95836258
H     8.85000038  18.02999878  50.81999969
H     9.94999981  16.26000023  55.40000153
H     7.44000006  16.77000046  56.06999969
H     5.38999987  17.61999893  55.59000015
H     6.51000023  18.44000053  51.52999878
H    14.75999928  17.06999969  51.46999741
H     3.61000013  18.13999939  53.62999725
H     4.40000010  19.32999992  52.68000031
S    15.38000011  16.06999969  56.17000198
C    18.04999924  15.51000023  55.17000198
C    16.70999908  15.90000057  54.97000122
C    16.35000038  16.21000099  53.61000061
C    17.27000046  16.23999977  52.65999603
C    18.60999870  15.93000031  52.83000183
C    19.56999969  15.82999992  51.79000092
C    20.81000137  15.26000023  52.02000046
C    21.18000031  15.08999920  53.34999847
C    20.38999939  15.14999962  54.45999908
C    19.01000023  15.52000046  54.16999817
C    14.91000080  16.48999977  53.53000259
C    14.19000053  16.27000046  54.77000427
C    12.76999950  16.25000000  54.79000092
C    22.63999939  14.85000038  53.76999664
H    22.95267487  15.47534847  54.60622406
H    18.34000015  15.03000069  56.11000061
H    16.98999977  16.52000046  51.65000153
H    19.26000023  15.98000050  50.76000214
H    21.47000122  15.06000042  51.17000198
H    20.75000000  14.92000008  55.45999908
H    12.15999985  16.04999924  55.66999817
H    23.42000008  14.88000011  53.00000000
H    22.65000153  13.78000069  54.02000046
