96

S    12.10000038  16.67000008  44.16999817
C     9.44000053  17.18000031  44.91000366
C    10.70000076  16.77999878  45.28999710
C    11.00000000  16.34000015  46.63999939
C     9.96000004  16.29999924  47.58999634
C     8.63000011  16.61999893  47.18999863
C     7.55999994  16.40999985  48.11999893
C     6.23000050  16.61999893  47.70000076
C     6.01999998  17.30999947  46.46999741
C     7.00000000  17.57999992  45.61000061
C     8.38000011  17.14999962  45.87999725
C    12.48000050  16.11999893  46.77000046
C    13.19000053  16.36999893  45.56000137
C    14.60000038  16.27000046  45.48999786
C     4.55999994  17.61000061  46.06999969
H     4.20997190  17.17425156  45.13420868
H     9.30000019  17.45000076  43.87000275
H    10.08999920  15.92000008  48.60000229
H     7.86000013  16.11999893  49.12000275
H     5.36000013  16.36999893  48.29000092
H     6.77999973  18.15000153  44.72000122
H    15.10000038  16.64999962  44.61000061
H     3.89999986  17.50000000  46.93999863
H     4.48999977  18.70000076  46.00999832
S    15.59000015  15.36999893  49.27999878
C    18.27000046  14.85000038  48.39000320
C    17.05999947  15.34999943  48.11999893
C    16.70999908  15.78999996  46.84000015
C    17.76000023  15.92000008  45.86000061
C    19.06999969  15.50000000  46.11999893
C    20.10000038  15.47999954  45.18000031
C    21.38999939  15.00000000  45.52000046
C    21.61000061  14.52000046  46.91999817
C    20.61000061  14.44000053  47.78999710
C    19.30999947  14.93999958  47.42000198
C    15.26999950  15.97000027  46.63000107
C    14.55999947  15.72000027  47.84999847
C    13.21000004  15.81999969  47.93000031
C    23.05999947  14.15999985  47.23999786
H    23.49220848  14.92522144  47.88476944
H    18.47999954  14.30999947  49.29999924
H    17.53999901  16.23999977  44.84000397
H    20.00000000  15.90000057  44.18000031
H    22.23999977  15.08999920  44.86000061
H    20.69000053  14.07999992  48.81000137
H    12.64000034  15.73999977  48.85000229
H    23.69999886  14.14000034  46.33999634
H    23.05000114  13.22000027  47.80000305
S    15.77999973  12.84999943  52.21000290
C    18.36000061  12.38000011  51.49000168
C    17.11000061  12.43999958  51.05999756
C    16.61999893  11.96000004  49.84000397
C    17.57999992  11.49000072  48.97999573
C    18.95000076  11.36000061  49.33000183
C    19.95000076  10.77000046  48.47999954
C    21.25999832  10.84000015  48.73000336
C    21.61999893  11.46999931  49.93999863
C    20.71000099  12.01000023  50.81999969
C    19.34999847  11.92999935  50.59000015
C    15.15999985  12.23999977  49.66999817
C    14.59000015  12.68000031  50.89000320
C    13.22000027  13.00000000  51.03000259
C    23.05999947  11.61999893  50.27999878
H    23.42781639  10.86273384  50.97235870
H    18.64999962  12.86999893  52.41000366
H    17.26000023  11.11999989  48.01000214
H    19.67000008  10.48999977  47.45999908
H    21.96000099  10.44999981  47.98999786
H    21.09999847  12.48999977  51.72000122
H    12.84999943  13.26000023  52.02000046
H    23.71999931  11.51000023  49.40999985
H    23.22000122  12.57999992  50.79000092
S    11.87000084  12.02000046  47.49000168
C     9.18000031  12.42000008  48.27999878
C    10.51000023  12.46999931  48.56999969
C    10.95999908  12.89000034  49.87999725
C    10.00000000  13.22999954  50.80999756
C     8.64000034  13.22999954  50.52999878
C     7.71000004  13.81999969  51.43000031
C     6.38999987  14.09000015  51.14999771
C     5.96000004  13.60999966  49.93999863
C     6.81999969  12.93000031  49.06000137
C     8.21000004  12.81999969  49.29000092
C    12.36999989  12.82999992  49.94999695
C    13.00000000  12.42000008  48.75999832
C    14.32999992  12.10999966  48.56999969
C     4.51000023  13.96999931  49.55999756
H     4.26658964  13.59772491  48.56487656
H     8.85000038  12.18999958  47.27000427
H    10.40999985  13.50000000  51.77999878
H     8.11999989  14.14000034  52.37999725
H     5.78000021  14.59000015  51.90000153
H     6.51000023  12.55000019  48.09999847
H    14.85000038  11.77999973  47.68000031
H     4.50000000  15.06000042  49.59000015
H     3.84999990  13.64999962  50.38999939
