96

S    12.53000069  16.98999977  44.43000031
C     9.78999996  17.21999931  44.89999771
C    11.05000019  16.86000061  45.34000015
C    11.31999969  16.29999924  46.63000107
C    10.24000072  16.21000099  47.55000305
C     8.94999981  16.70999908  47.15999985
C     7.85000038  16.62999916  48.09000015
C     6.57999992  17.02000046  47.77000046
C     6.32999992  17.43999863  46.39999771
C     7.36000013  17.60000038  45.50000000
C     8.69000053  17.11000061  45.81999969
C    12.77999973  16.10999870  46.79999924
C    13.52000046  16.54000092  45.70999908
C    14.91000080  16.50000000  45.59999847
C     4.92000008  17.90999985  46.07999802
H     4.54392576  17.49844742  45.14336014
H     9.59999943  17.64000130  43.92000198
H    10.38000011  15.81999969  48.54999924
H     8.10999966  16.40999985  49.12000275
H     5.75000000  17.02000046  48.46000290
H     7.13999987  18.01000023  44.51000214
H    15.44000053  16.79000092  44.68999863
H     4.26000023  17.61000061  46.90000153
H     4.88999987  19.00000000  46.18999863
S    15.84000015  15.31999969  49.23999786
C    18.53999901  14.73999977  48.48999786
C    17.29999924  15.31999969  48.18000031
C    16.97999954  15.72999954  46.84999847
C    17.97000122  15.70000076  45.86000061
C    19.31999969  15.22999954  46.19999695
C    20.42000008  15.36000061  45.26000214
C    21.63000107  14.86999989  45.61000061
C    21.93000031  14.32000065  46.93000031
C    20.96999931  14.34000015  47.90000153
C    19.57999992  14.68000031  47.49000168
C    15.57000065  15.98000050  46.69000244
C    14.84000015  15.62000084  47.84999847
C    13.45999908  15.70000076  47.95000076
C    23.36999893  13.99000072  47.41000366
H    23.62570000  14.52904224  48.32222748
H    18.68999863  14.42000008  49.52000046
H    17.78000069  16.10000038  44.86999893
H    20.13000107  15.71000004  44.27000046
H    22.44999886  14.98999977  44.89999771
H    21.14999962  14.14999962  48.95999908
H    12.89999962  15.47999954  48.86000061
H    24.13999939  14.21000004  46.65999985
H    23.34000015  12.92000008  47.64999771
S    16.01000023  12.65999985  52.11000061
C    18.53000069  12.02999973  51.26999664
C    17.20999908  12.06999969  50.90999985
C    16.76000023  11.75000000  49.64000320
C    17.68000031  11.40999985  48.61999893
C    19.04999924  11.39000034  48.95000076
C    20.09000015  11.02000046  48.08000183
C    21.38999939  10.73999977  48.47999954
C    21.77000046  11.05999947  49.81999969
C    20.89999962  11.64999962  50.63000107
C    19.47999954  11.72999954  50.30000305
C    15.34999943  11.90000057  49.61999893
C    14.80000019  12.48000050  50.79999924
C    13.50999928  13.01000023  50.79999924
C    23.22999954  10.84000015  50.27999878
H    23.51940155  11.20898819  51.26396561
H    18.71000099  12.23999977  52.32999802
H    17.38000107  11.23000050  47.58999634
H    19.85000038  10.76000023  47.04999924
H    22.09000015  10.15999985  47.88999939
H    21.14999962  11.84999943  51.66999817
H    13.15999985  13.43999958  51.72999954
H    23.47999954   9.77999973  50.43000031
H    23.81999969  11.28000069  49.45999908
S    12.06999969  11.78999996  47.32999802
C     9.48999977  12.77999973  48.04000092
C    10.86999989  12.75000000  48.22999954
C    11.44000053  13.20000076  49.45000076
C    10.62000084  13.83999920  50.31999969
C     9.18000031  13.86999989  50.18000031
C     8.42000008  14.45000076  51.17000198
C     7.07000017  14.40999985  51.07999802
C     6.48000002  13.97999954  49.81999969
C     7.26000023  13.45999908  48.85000229
C     8.61999989  13.31999969  49.02999878
C    12.77999973  12.86000061  49.59999847
C    13.27999973  12.10999966  48.53000259
C    14.60000038  11.69000053  48.47000122
C     5.03999996  14.27000046  49.38000107
H     4.77735329  13.93132496  48.37779617
H     9.09000015  12.28000069  47.15999985
H    11.07999992  14.15999985  51.25000000
H     8.93000031  14.80999947  52.05999756
H     6.51000023  14.78000069  51.93999863
H     6.74000025  13.27000046  47.90999985
H    14.98999977  11.14999962  47.62000275
H     4.81999969  15.34000015  49.50000000
H     4.38000011  13.81000042  50.12000275
