96

S    12.41000080  16.47999954  43.88999939
C     9.81999969  17.20000076  44.56999969
C    11.07999992  16.81999969  44.99000168
C    11.42000008  16.61000061  46.37000275
C    10.39000034  16.62999916  47.29999924
C     9.11000061  16.95999908  46.91999817
C     8.00000000  16.86000061  47.87000275
C     6.76000023  17.35999870  47.50999832
C     6.52999973  17.90999985  46.19999695
C     7.50000000  17.85000038  45.25000000
C     8.78999996  17.35000038  45.54000092
C    12.82999992  16.38000107  46.47999573
C    13.50999928  16.40999985  45.26000214
C    14.93000031  16.42000008  45.17000198
C     5.14999962  18.37000084  45.84999847
H     4.73851633  17.68892479  45.10507202
H     9.77000046  17.57999992  43.55999756
H    10.50000000  16.44000053  48.36999893
H     8.06999969  16.54000092  48.90999603
H     6.00000000  17.43999863  48.27999878
H     7.20000029  18.12999916  44.23999786
H    15.53999996  16.55999947  44.27999878
H     4.48000002  18.27000046  46.70999908
H     5.13999987  19.36000061  45.37000275
S    15.90999985  15.59000015  48.95999908
C    18.51000023  15.19000053  48.47999954
C    17.28999901  15.53999996  47.95000076
C    17.01000023  15.85000038  46.51000214
C    18.04999924  15.81999969  45.68000031
C    19.38999939  15.67000008  46.14999771
C    20.48000145  15.67999935  45.22999573
C    21.65999985  15.13000011  45.58000183
C    21.93000031  14.72000027  46.97000122
C    20.89999962  14.88999939  47.88999939
C    19.62000084  15.31000042  47.52999878
C    15.62000084  16.09000015  46.37000275
C    14.91000080  15.90000057  47.54000092
C    13.55000019  16.10999870  47.65999603
C    23.28000069  14.19999981  47.44999695
H    23.63653564  14.74529171  48.32386017
H    18.63000107  14.70000076  49.43999863
H    17.87999916  15.80000019  44.61000061
H    20.28000069  16.02000046  44.20999908
H    22.36999893  14.96000099  44.78000259
H    21.07999992  14.52000046  48.88999939
H    13.09999943  16.13000107  48.64999771
H    23.95000076  14.34000015  46.59999847
H    23.13999939  13.12000084  47.56999969
S    11.64000034  17.36999893  50.75000000
C     8.90999985  17.46999931  51.51000214
C    10.21000004  17.07999992  51.79999924
C    10.57999992  16.55999947  53.08000183
C     9.56999969  16.38000107  54.03999710
C     8.26000023  16.94000053  53.85000229
C     7.25000000  16.87999916  54.88999939
C     5.98000002  17.38999939  54.64000320
C     5.61999989  17.81999969  53.27999878
C     6.61000013  17.92000008  52.34000397
C     7.90999985  17.43000031  52.55000305
C    12.06999969  16.51000023  53.13000107
C    12.79000092  16.88999939  51.98999786
C    14.11000061  16.87999916  51.97000122
C     4.13000011  18.17000008  52.90000153
H     3.90104604  17.67631721  51.95556641
H     8.64000034  17.86999893  50.52999878
H     9.72000027  15.80000019  54.95999908
H     7.57999992  16.43000031  55.83000183
H     5.13999987  17.35999870  55.33000183
H     6.34000015  18.42000008  51.40999603
H    14.63000107  17.09000015  51.04000092
H     3.49000001  17.89999962  53.75000000
H     4.13999987  19.26000023  52.81000137
S    15.13000011  15.95000076  55.61999893
C    17.87999916  15.71000004  54.98000336
C    16.61000061  16.06999969  54.58000183
C    16.28000069  16.44000053  53.22999954
C    17.26000023  16.45000076  52.31999969
C    18.54999924  15.93999958  52.64999771
C    19.64999962  15.98999977  51.72999954
C    20.94000053  15.65999985  52.09999847
C    21.24000168  15.39000034  53.41999817
C    20.17999840  15.40999985  54.34999847
C    18.86000061  15.57999992  53.96999741
C    14.85999966  16.60000038  53.11000061
C    14.14000034  16.31999969  54.26000214
C    12.77999973  16.23999977  54.27999878
C    22.57999802  14.72000027  53.75999832
H    22.89739990  14.97969151  54.76990891
H    17.94000053  15.36999893  56.00999832
H    17.13999939  16.80999947  51.30000305
H    19.44000053  16.42000008  50.76000214
H    21.77000046  15.73999977  51.39999771
H    20.35000038  15.10000038  55.38000107
H    12.20999908  15.92000008  55.13999939
H    23.36999893  14.91000080  53.02000046
H    22.52000046  13.63000011  53.74000168
