96

S    12.18000031  16.63999939  43.89999771
C     9.55999947  17.18000031  44.71000290
C    10.80000019  16.67000008  45.00999832
C    11.14999962  16.39999962  46.38999939
C    10.17000008  16.42000008  47.38999939
C     8.85000038  16.77999878  46.97000122
C     7.83999968  16.79000092  47.91999817
C     6.57999992  17.25000000  47.58999634
C     6.32000017  17.78000069  46.29000092
C     7.30999994  17.85000038  45.34000015
C     8.56000042  17.27000046  45.68999863
C    12.56000042  16.31000137  46.51000214
C    13.27999973  16.42000008  45.27999878
C    14.65999985  16.52000046  45.20999908
C     4.92000008  18.12000084  45.83000183
H     4.64101696  17.51911354  44.96443558
H     9.26999950  17.63000107  43.75999832
H    10.47000027  16.35000038  48.43000031
H     8.18000031  16.35000038  48.86000061
H     5.82999992  17.25000000  48.37999725
H     7.21000004  18.29000092  44.34999847
H    15.11000061  16.54000092  44.22000122
H     4.26000023  17.97000122  46.70000076
H     4.80999994  19.19999886  45.66999817
S    15.62999916  15.60999966  48.81999969
C    18.32999992  15.17000008  48.27999878
C    17.06999969  15.59000015  47.84000015
C    16.77000046  16.04999924  46.55000305
C    17.87999916  16.14999962  45.70000076
C    19.20999908  15.80999947  46.07999802
C    20.36000061  15.77000046  45.11000061
C    21.63000107  15.40999985  45.59000015
C    21.81999969  14.96000099  46.90000153
C    20.76000023  14.93999958  47.80000305
C    19.40999985  15.27999973  47.39999771
C    15.31999969  16.36000061  46.38999939
C    14.55999947  16.18999863  47.57999802
C    13.26000023  16.11999893  47.65999603
C    23.19999886  14.40999985  47.31999969
H    23.49863052  14.81060314  48.28872681
H    18.45999908  14.55000019  49.15999985
H    17.79000092  16.42000008  44.65000153
H    20.17000008  15.95999908  44.06000137
H    22.53000069  15.27999973  45.00000000
H    20.79999924  14.40000057  48.75000000
H    12.84999943  15.85999966  48.63999939
H    23.95000076  14.75000000  46.59000015
H    23.15000153  13.31999969  47.23999786
S    12.20999908  17.05000114  50.84999847
C     9.56999969  17.28000069  51.56999969
C    10.81999969  16.90999985  51.90999985
C    11.14999962  16.44000053  53.22000122
C    10.15999985  16.40999985  54.15000153
C     8.86999989  16.80999947  53.88999939
C     7.94000053  16.75000000  54.95999908
C     6.63000011  17.13999939  54.62999725
C     6.30000019  17.57999992  53.37999725
C     7.26999998  17.76000023  52.41000366
C     8.56999969  17.22999954  52.58999634
C    12.56999969  16.31000137  53.34999847
C    13.30999947  16.61000061  52.18000031
C    14.65999985  16.64999962  52.21000290
C     4.92000008  17.88999939  52.93000031
H     4.65890265  17.37486076  52.00557709
H     9.22999954  17.71999931  50.63999939
H    10.36000061  15.93999958  55.12000275
H     8.23000050  16.13999939  55.80999756
H     5.84000015  17.15999985  55.37000275
H     7.02000046  18.27000046  51.49000168
H    15.21999931  16.84000015  51.30000305
H     4.30000019  17.51000023  53.75000000
H     4.69000006  18.96000099  52.81000137
S    15.62999916  15.59999943  55.90999985
C    18.30999947  15.26000023  55.33000183
C    17.10000038  15.67000008  54.91000366
C    16.76000023  16.03000069  53.55999756
C    17.86000061  16.13000107  52.68000031
C    19.15999985  15.72000027  53.09000015
C    20.17000008  15.62000084  52.11000061
C    21.32999802  15.05000019  52.50999832
C    21.63000107  14.77000046  53.88999939
C    20.66999817  14.86999989  54.80999756
C    19.37999916  15.26999950  54.40999985
C    15.36000061  16.21000099  53.36000061
C    14.65000057  16.00000000  54.50000000
C    13.32999992  16.03000069  54.48999786
C    23.02999878  14.32000065  54.26000214
H    23.48319435  14.96202660  55.01532745
H    18.44000053  14.89999962  56.33999634
H    17.67000008  16.47999954  51.66999817
H    19.98999977  15.90999985  51.06999969
H    22.00000000  14.93000031  51.66999817
H    20.93000031  14.68999958  55.84999847
H    12.90999985  15.80999947  55.47000122
H    23.64000130  14.14999962  53.36000061
H    23.05999947  13.30999947  54.68999863
