96

S    11.90999985  17.29999924  44.15999985
C     9.22000027  17.47999954  45.05000305
C    10.54999924  17.15999985  45.30000305
C    10.90999985  16.60000038  46.52999878
C     9.98999977  16.53000069  47.61000061
C     8.67999935  16.90000153  47.39999771
C     7.64999962  16.87999916  48.40000153
C     6.38999987  17.34000015  48.13000107
C     6.07999992  17.97000122  46.88000107
C     7.02000046  17.97999954  45.93999863
C     8.31999969  17.43000031  46.12999725
C    12.32999992  16.23999977  46.59000015
C    13.01000023  16.65999985  45.43000031
C    14.40999985  16.62999916  45.31999969
C     4.63000011  18.20000076  46.50000000
H     4.35477638  17.67127991  45.58741760
H     9.03999996  17.89999962  44.06000137
H    10.31000042  16.03999901  48.52000427
H     8.03999996  16.56999969  49.36000061
H     5.71000004  17.29999924  48.96999741
H     6.76000023  18.35000038  44.93999863
H    14.92000008  16.77999878  44.36999893
H     3.91999984  18.04999924  47.31999969
H     4.55999994  19.25000000  46.18000031
S    15.44999981  15.72000027  48.95999908
C    18.13999939  15.21000004  48.30999756
C    16.90999985  15.71000004  47.93000031
C    16.61999893  16.25000000  46.66999817
C    17.59000015  16.32999992  45.72999954
C    18.82999992  15.85000038  46.00000000
C    19.93999863  15.90000057  45.12000275
C    21.18999863  15.38000011  45.41999817
C    21.52000046  14.85000038  46.70000076
C    20.53999901  14.91000080  47.64999771
C    19.18000031  15.36000061  47.35000229
C    15.19999981  16.36999893  46.42000198
C    14.47999954  16.04999924  47.62000275
C    13.15000057  16.03999901  47.68000031
C    22.88000107  14.32000065  46.97000122
H    23.27031517  14.67417526  47.92410660
H    18.29000092  14.68000031  49.25000000
H    17.46000099  16.59000015  44.68000031
H    19.73999977  16.38000107  44.15999985
H    21.96000099  15.17000008  44.68999863
H    20.66999817  14.55000019  48.67000198
H    12.63000011  15.78999996  48.60000229
H    23.55999947  14.65999985  46.18000031
H    22.79999924  13.22999954  46.95000076
S    11.98999977  16.98999977  51.06999969
C     9.36999989  17.69000053  51.75000000
C    10.55999947  17.20999908  52.15000153
C    10.88999939  16.81999969  53.50999832
C     9.92000008  16.87999916  54.47999954
C     8.63000011  17.28999901  54.09999847
C     7.50000000  17.25000000  55.06000137
C     6.23000050  17.68000031  54.68999863
C     5.97000027  18.11000061  53.40999985
C     7.03999996  18.18000031  52.50000000
C     8.36999989  17.73999977  52.75000000
C    12.35000038  16.77999878  53.60000229
C    13.09999943  16.95999908  52.43000031
C    14.47999954  17.05999947  52.32999802
C     4.55000019  18.53999901  53.01000214
H     4.24911833  18.00820923  52.10735703
H     9.11999989  17.97999954  50.72999954
H    10.07999992  16.46000099  55.47000122
H     7.67000008  16.97999954  56.09000397
H     5.38000011  17.79999924  55.37000275
H     6.94999981  18.56999969  51.49000168
H    14.96000099  17.35999870  51.39999771
H     3.84999990  18.38999939  53.83999634
H     4.65999985  19.62000084  52.84000015
S    15.59000015  16.32999992  56.05999756
C    18.17000008  15.67000008  55.26000214
C    16.94000053  16.23999977  54.95999908
C    16.59000015  16.42000008  53.54999924
C    17.60000038  16.31000137  52.55000305
C    18.93000031  15.95000076  52.85999680
C    19.93999863  15.72000027  51.90000153
C    21.11999893  15.21999931  52.29999924
C    21.48999977  15.07999992  53.62999725
C    20.50000000  15.21000004  54.54999924
C    19.19000053  15.64000034  54.25000000
C    15.19000053  16.63999939  53.43000031
C    14.50000000  16.56999969  54.64000320
C    13.15000057  16.69999886  54.75000000
C    23.00000000  14.88000011  53.95000076
H    23.35392570  15.31026173  54.88686371
H    18.29000092  15.19000053  56.23000336
H    17.34000015  16.45000076  51.50000000
H    19.78999901  16.04999924  50.87999725
H    21.84000015  15.10000038  51.49000168
H    20.76000023  15.17000008  55.61000061
H    12.64999962  16.69999886  55.72000122
H    23.54999924  15.27999973  53.09000015
H    23.08000183  13.78000069  53.95000076
