96

S    12.30000019  16.82999992  44.15999985
C     9.65999985  17.25000000  44.86000061
C    10.90000057  16.70999908  45.17000198
C    11.23999977  16.18999863  46.45000076
C    10.29999924  16.20000076  47.45999908
C     9.02999973  16.88999939  47.28000259
C     8.02999973  16.81999969  48.20000076
C     6.75000000  17.31999969  47.93000031
C     6.38999987  17.84000015  46.63000107
C     7.35000038  17.77000046  45.65999985
C     8.69999981  17.31999969  45.93999863
C    12.68000031  16.02000046  46.58000183
C    13.40000057  16.44000053  45.43000031
C    14.82999992  16.46000099  45.34000015
C     5.00999975  18.22999954  46.26999664
H     4.65694857  17.64638519  45.41979218
H     9.32999992  17.54999924  43.87000275
H    10.29000092  15.53999996  48.33000183
H     8.13000011  16.18000031  49.08000183
H     5.92000008  17.05999947  48.57999802
H     7.14999962  17.88999939  44.59999847
H    15.36000061  16.77000046  44.45000076
H     4.44999981  17.94999886  47.16999817
H     4.86999989  19.31999969  46.18000031
S    15.90999985  15.06000042  48.96999741
C    18.53999901  14.80000019  48.18999863
C    17.25000000  15.13000011  47.88999939
C    16.94000053  15.62999916  46.60999680
C    17.89999962  15.59999943  45.54999924
C    19.22000122  15.11000061  45.77000046
C    20.23999977  15.17000008  44.80999756
C    21.52000046  14.68999958  45.20000076
C    21.83000183  14.55000019  46.59999847
C    20.85000038  14.52999973  47.55000305
C    19.55000114  14.77000046  47.15000153
C    15.52000046  15.98999977  46.47999573
C    14.80999947  15.62999916  47.69000244
C    13.43999958  15.69000053  47.76000214
C    23.29999924  14.25000000  47.04999924
H    23.58016777  14.78878689  47.95515823
H    18.75000000  14.65999985  49.25000000
H    17.54999924  15.97000027  44.59000015
H    20.03999901  15.60999966  43.83999634
H    22.30999947  14.67000008  44.45999908
H    21.07999992  14.19000053  48.54999924
H    12.93000031  15.54999924  48.70999908
H    24.00000000  14.35999966  46.22000122
H    23.31999969  13.17000008  47.23999786
S    16.05999947  13.09999943  52.21000290
C    18.59000015  12.23999977  51.69000244
C    17.25000000  12.25999928  51.37000275
C    16.82999992  11.84000015  50.08999634
C    17.71000099  11.18999958  49.25000000
C    19.06999969  11.11999989  49.55999756
C    19.96999931  10.55999947  48.60000229
C    21.25999832  10.57000065  48.85000229
C    21.80000114  11.26000023  50.06999969
C    20.88999939  11.92999935  50.90999985
C    19.52999878  11.78999996  50.75000000
C    15.39999962  12.02999973  49.93000031
C    14.82999992  12.81000042  50.97999954
C    13.50000000  13.22000027  51.02000427
C    23.26999855  11.35000038  50.19000244
H    23.60318565  11.28481102  51.22578049
H    18.92000008  12.57999992  52.67000198
H    17.46999931  10.97000027  48.20999908
H    19.62000084  10.26999950  47.61000061
H    21.90999985  10.08999920  48.11999893
H    21.25000000  12.53000069  51.76000214
H    13.02000046  13.61999989  51.90999985
H    23.72999954  10.57000065  49.56999969
H    23.61999893  12.35000038  49.91000366
S    12.13999939  11.85999966  47.54000092
C     9.55999947  12.60000038  48.11000061
C    10.84000015  12.55000019  48.50999832
C    11.31999969  13.14000034  49.73999786
C    10.44000053  13.61999989  50.61999893
C     9.07999992  13.67000008  50.24000168
C     8.13000011  14.07999992  51.22000122
C     6.76999998  13.96999931  50.98999786
C     6.32000017  13.52000046  49.69999695
C     7.26000023  13.07000065  48.77999878
C     8.61999989  13.07999992  49.02999878
C    12.76000023  12.97999954  49.86999893
C    13.30999947  12.20999908  48.83999634
C    14.55999947  11.65999985  48.85000229
C     4.90999985  13.94000053  49.29999924
H     4.58141994  13.74425125  48.27930450
H     9.19000053  12.20000076  47.16999817
H    10.80000019  13.76999950  51.63999939
H     8.56000042  14.47999954  52.14000320
H     6.01000023  14.40999985  51.63000107
H     7.05999947  12.77999973  47.75000000
H    14.89999962  11.11999989  47.97000122
H     4.86999989  15.03999901  49.38999939
H     4.26999998  13.48999977  50.06999969
