96

S    11.96000004  16.97999954  44.06999969
C     9.25000000  17.34000015  44.69999695
C    10.50000000  17.02999878  45.10000229
C    10.90000057  16.84000015  46.46999741
C     9.89000034  16.75000000  47.38999939
C     8.52000046  17.07999992  47.04000092
C     7.44999981  17.13999939  47.97999954
C     6.23000050  17.60000038  47.63000107
C     5.92999983  17.97000122  46.29000092
C     6.91999960  17.82999992  45.31999969
C     8.23999977  17.43999863  45.68000031
C    12.30000019  16.55999947  46.70999908
C    13.01000023  16.67000008  45.41999817
C    14.32000065  16.39000130  45.34999847
C     4.50000000  18.37000084  45.90999985
H     4.12948895  17.68386841  45.14839554
H     9.09000015  17.68000031  43.67000198
H    10.11000061  16.54000092  48.43000031
H     7.68000031  16.88999939  49.01000214
H     5.51000023  17.86000061  48.40000153
H     6.67999983  18.02000046  44.27000046
H    14.93999958  16.60000038  44.47999954
H     3.81000018  18.26000023  46.76000214
H     4.53000021  19.40999985  45.56000137
S    15.50000000  15.77999973  49.10999680
C    18.22999954  15.38000011  48.30999756
C    16.90000153  15.71000004  47.97999954
C    16.51000023  16.03999901  46.60999680
C    17.43999863  16.18000031  45.63000107
C    18.81000137  15.92000008  45.90999985
C    19.88999939  16.11999893  45.01999664
C    21.14000130  15.80000019  45.30000305
C    21.48999977  15.22999954  46.55000305
C    20.58000183  14.98999977  47.52999878
C    19.18000031  15.34999943  47.21000290
C    15.06000042  16.13000107  46.52000046
C    14.37000084  16.04999924  47.76000214
C    12.98999977  16.35000038  47.88999939
C    22.95000076  15.07999992  46.90000153
H    23.15769958  15.33783531  47.93850327
H    18.47999954  15.18000031  49.34999847
H    17.13999939  16.62999916  44.68999863
H    19.68000031  16.64999962  44.09000015
H    21.87999916  16.09000015  44.56999969
H    20.88999939  14.68999958  48.52000427
H    12.36999989  16.27000046  48.77999878
H    23.47999954  15.80000019  46.25999832
H    23.25000000  14.02999973  46.81999969
S    15.90999985  13.03999996  52.38999939
C    18.63999939  12.65999985  51.46999741
C    17.23999977  12.64999962  51.22000122
C    16.77000046  12.31999969  49.89999771
C    17.63000107  11.85999966  48.90999603
C    19.04000092  11.96000004  49.18000031
C    19.97999954  11.31999969  48.36000061
C    21.31000137  11.13000011  48.67000198
C    21.80999947  11.57999992  49.91000366
C    20.95999908  12.20000076  50.84999847
C    19.56999969  12.32999992  50.48999786
C    15.27999973  12.43000031  49.86999893
C    14.72000027  12.89999962  51.09000397
C    13.43000031  13.30999947  51.13999939
C    23.21000099  11.19999981  50.31000137
H    23.51286888  11.50991058  51.31016541
H    19.04000092  12.84999943  52.45999908
H    17.31999969  11.36000061  47.98999786
H    19.54000092  10.81999969  47.49000168
H    21.96000099  10.42000008  48.16999817
H    21.09000015  12.41000080  51.90999985
H    12.97000027  13.73999977  52.02999878
H    23.22000122  10.11999989  50.10000229
H    23.85000038  11.72000027  49.58000183
S    12.02000046  12.64000034  47.42000198
C     9.35999966  13.22999954  48.22000122
C    10.70000076  13.15999985  48.54000092
C    11.18000031  13.50000000  49.79999924
C    10.34000015  13.81999969  50.79000092
C     8.98999977  13.97999954  50.52999878
C     8.17000008  14.57999992  51.49000168
C     6.84999990  14.78999996  51.19999695
C     6.24000025  14.35999966  49.97000122
C     7.03999996  13.75000000  49.02999878
C     8.48999977  13.61999989  49.22000122
C    12.63000011  13.19000053  49.95999908
C    13.21000004  12.65999985  48.77999878
C    14.52000046  12.27000046  48.74000168
C     4.81999969  14.75000000  49.54000092
H     4.64505863  14.28349113  48.57053375
H     8.85000038  13.02000046  47.28000259
H    10.70000076  14.04999924  51.79000092
H     8.59000015  14.98999977  52.39999771
H     6.28000021  15.29999924  51.97000122
H     6.61000013  13.47000027  48.08000183
H    15.03000069  12.05000019  47.80000305
H     4.76999998  15.85000038  49.50000000
H     4.11000013  14.34000015  50.26000214
