96

S    12.68000031  16.32999992  43.86000061
C     9.94000053  16.73999977  44.50000000
C    11.23000050  16.28999901  44.87999725
C    11.56000042  16.21000099  46.26999664
C    10.60999966  16.44000053  47.29000092
C     9.35999966  16.79000092  46.91999817
C     8.32999992  16.95000076  47.94000244
C     7.05999947  17.46999931  47.64999771
C     6.74000025  17.76000023  46.31000137
C     7.75000000  17.63000107  45.34000015
C     8.98999977  17.00000000  45.52000046
C    12.96000004  16.18000031  46.44000244
C    13.71999931  16.28000069  45.27999878
C    15.17000008  16.44000053  45.34000015
C     5.36999989  18.20000076  45.90999985
H     4.87371874  17.56901360  45.17266846
H     9.78999996  17.28000069  43.56999969
H    10.75000000  16.23999977  48.34999847
H     8.65999985  16.47999954  48.86000061
H     6.30000019  17.47999954  48.43000031
H     7.36999989  17.94000053  44.38000107
H    15.76000023  16.53000069  44.43000031
H     4.78999996  18.06999969  46.84000015
H     5.38000011  19.27999878  45.68999863
S    16.15999985  15.76000023  49.16999817
C    18.93000031  15.26999950  48.40999985
C    17.63000107  15.73999977  48.13999939
C    17.23999977  16.07999992  46.76000214
C    18.22999954  15.93999958  45.77000046
C    19.55999947  15.62999916  46.13999939
C    20.52000046  15.44000053  45.13000107
C    21.76000214  14.89999962  45.44000244
C    22.10000038  14.47999954  46.70999908
C    21.21000099  14.67000008  47.74000168
C    19.96999931  15.34999943  47.43999863
C    15.82999992  16.23999977  46.56999969
C    15.05000019  16.04999924  47.75000000
C    13.61999989  16.11999893  47.64999771
C    23.48999977  14.02999973  47.09000015
H    23.78878212  14.54931164  48.00057220
H    19.11000061  14.60000038  49.25000000
H    17.93000031  15.73999977  44.73999786
H    20.35000038  15.75000000  44.09999847
H    22.53000069  15.03000069  44.68999863
H    21.38999939  14.30999947  48.75000000
H    12.98999977  15.98999977  48.53000259
H    24.28999901  14.25000000  46.37000275
H    23.54999924  12.94000053  47.21000290
S    16.14999962  13.22999954  52.14000320
C    18.73999977  12.60000038  51.39999771
C    17.42000008  12.57999992  51.07999802
C    16.88999939  12.10999966  49.84000397
C    17.82999992  11.67000008  48.95000076
C    19.20999908  11.76000023  49.15999985
C    20.09000015  11.16000080  48.22999954
C    21.44000053  11.16000080  48.47999954
C    21.88999939  11.49000072  49.78000259
C    21.00000000  12.01000023  50.66999817
C    19.65999985  12.23999977  50.38000107
C    15.48999977  12.23999977  49.75999832
C    14.98999977  12.89999962  50.87999725
C    13.64999962  13.21000004  51.02000427
C    23.28000069  11.11999989  50.30000305
H    23.48770142  11.43155193  51.32366943
H    19.01000023  13.00000000  52.36999893
H    17.52000046  11.23000050  48.01000214
H    19.73999977  10.67999935  47.30999756
H    22.04999924  10.65999985  47.74000168
H    21.25000000  12.05999947  51.72999954
H    13.27000046  13.67000008  51.93000031
H    23.42000008  10.03999901  50.20000076
H    24.04000092  11.57999992  49.64000320
S    12.09000015  12.18000031  47.42000198
C     9.48999977  12.72999954  48.09999847
C    10.77000046  12.74000072  48.48999786
C    11.33999920  13.19000053  49.75000000
C    10.43000031  13.71000099  50.63999939
C     9.07999992  13.76000023  50.30000305
C     8.17000008  14.40999985  51.13999939
C     6.86999989  14.61999989  50.73999786
C     6.43000031  14.34000015  49.47000122
C     7.26000023  13.75000000  48.57999802
C     8.64000034  13.36999989  48.96999741
C    12.79999924  13.00000000  49.89999771
C    13.31999969  12.43999958  48.72000122
C    14.60999966  11.95000076  48.66000366
C     4.96000004  14.77000046  49.08000183
H     4.57665110  14.11388302  48.29855728
H     9.15999985  12.20000076  47.22000122
H    10.67000008  14.23999977  51.56000137
H     8.48999977  14.91000080  52.04999924
H     6.23000050  15.21999931  51.38999939
H     6.91999960  13.67000008  47.55000305
H    15.06000042  11.61000061  47.72999573
H     5.00999975  15.77999973  48.64999771
H     4.36999989  14.80000019  50.00999832
