96

S    12.01000023  16.68000031  44.12000275
C     9.36999989  16.94000053  44.75000000
C    10.59000015  16.44000053  45.13999939
C    10.80999947  15.95000076  46.43000031
C     9.81000042  16.00000000  47.38999939
C     8.55000019  16.54000092  47.01000214
C     7.48000050  16.54000092  47.85999680
C     6.28999996  17.19000053  47.51999664
C     6.09000015  17.71999931  46.20999908
C     7.07999992  17.54999924  45.34000015
C     8.32999992  17.00000000  45.68000031
C    12.25999928  15.77000046  46.63999939
C    13.01000023  16.10999870  45.51000214
C    14.37999916  16.15999985  45.43000031
C     4.75000000  18.15999985  45.84999847
H     4.32833099  17.53119469  45.06584167
H     9.25000000  17.64000130  43.92000198
H     9.89999962  15.32999992  48.23999786
H     7.63000011  16.35000038  48.92000198
H     5.46999979  17.17000008  48.22999954
H     6.84999990  17.71000099  44.29000092
H    14.98000050  16.29999924  44.54000092
H     4.11000013  18.06999969  46.73999786
H     4.94000006  19.19999886  45.58000183
S    15.53999996  15.31999969  49.15999985
C    18.19000053  14.84000015  48.34999847
C    16.94000053  15.29999924  48.02999878
C    16.55999947  15.69000053  46.70999908
C    17.53999901  15.57999992  45.68000031
C    18.86999893  15.22999954  46.05999756
C    19.92000008  15.32999992  45.08999634
C    21.21000099  15.01000023  45.34000015
C    21.56999969  14.77000046  46.68000031
C    20.59999847  14.68000031  47.68000031
C    19.22999954  14.80999947  47.39999771
C    15.11000061  15.92000008  46.59999847
C    14.40999985  15.65999985  47.85999680
C    13.00000000  15.53999996  47.83000183
C    23.00000000  14.40999985  47.09999847
H    23.21552086  14.74370861  48.11502838
H    18.42000008  14.73999977  49.40000153
H    17.29999924  15.77999973  44.64000320
H    19.51000023  15.57000065  44.10999680
H    22.01000023  14.94999981  44.61000061
H    21.00000000  14.40000057  48.66000366
H    12.51999950  15.21999931  48.75000000
H    23.78000069  14.70999908  46.38999939
H    23.05999947  13.30999947  47.04999924
S    16.01000023  12.76000023  52.50000000
C    18.63000107  12.28999996  51.68000031
C    17.28999901  12.30000019  51.43000031
C    16.79000092  11.89000034  50.14999771
C    17.67000008  11.42000008  49.19000244
C    19.03000069  11.28999901  49.54000092
C    19.95000076  10.84000015  48.57999802
C    21.27000046  10.67000008  48.87000275
C    21.77999878  11.02000046  50.12000275
C    20.95000076  11.46000004  51.11999893
C    19.55000114  11.69000053  50.83000183
C    15.32999992  11.90999985  50.10000229
C    14.80999947  12.43000031  51.26999664
C    13.48999977  12.71999931  51.37000275
C    23.28000069  10.88000107  50.44000244
H    23.54854965  11.02840900  51.48592758
H    18.98999977  12.74000072  52.61000061
H    17.34000015  11.13999939  48.20000076
H    19.50000000  10.53999996  47.63999939
H    21.94000053  10.19000053  48.15999985
H    21.25000000  11.72000027  52.14000320
H    13.09000015  13.09999943  52.30999756
H    23.52000046   9.82999992  50.20000076
H    23.84000015  11.46999931  49.71000290
S    12.17000008  12.10999966  47.54000092
C     9.44000053  12.55000019  48.29999924
C    10.77999973  12.48000050  48.63999939
C    11.25000000  12.79999924  50.00000000
C    10.31999969  13.30000019  50.93999863
C     8.93999958  13.27999973  50.61999893
C     7.97999954  13.76999950  51.49000168
C     6.71000004  13.99000072  51.07999802
C     6.19999981  13.52000046  49.85000229
C     7.11999989  12.93000031  49.01000214
C     8.50000000  12.81999969  49.29999924
C    12.64999962  12.60000038  50.18000031
C    13.23999977  12.17000008  48.97999573
C    14.56999969  11.77999973  48.90999603
C     4.90999985  14.01000023  49.22999954
H     4.59928894  13.33679295  48.43103027
H     9.11000061  12.20000076  47.31999969
H    10.71000004  13.43000031  51.93999863
H     8.27999973  14.09999943  52.48000336
H     6.09000015  14.73000050  51.58000183
H     6.80999994  12.94000053  47.97000122
H    14.94999981  11.69000053  47.88999939
H     4.86000013  15.06000042  48.95000076
H     4.11000013  14.00000000  49.99000168
