96

S    12.17000008  17.02999878  44.18000031
C     9.68000031  17.31999969  45.07999802
C    10.92000008  16.87999916  45.33000183
C    11.23999977  16.36000061  46.59000015
C    10.26000023  16.28000069  47.56999969
C     8.89000034  16.62999916  47.29000092
C     7.82000017  16.54000092  48.25000000
C     6.56000042  16.86000061  47.88999939
C     6.25999975  17.47999954  46.59000015
C     7.27999973  17.63000107  45.61999893
C     8.60999966  17.19000053  45.97000122
C    12.69999981  16.25000000  46.59999847
C    13.31999969  16.61999893  45.41999817
C    14.67000008  16.64999962  45.31000137
C     4.86000013  17.93000031  46.18000031
H     4.45654106  17.30003929  45.38724136
H     9.48999977  17.71999931  44.08000183
H    10.52000046  15.84000015  48.53000259
H     8.13000011  16.17000008  49.22000122
H     5.79999971  16.70999908  48.64999771
H     6.98999977  18.00000000  44.64000320
H    15.07999992  16.79999924  44.31999969
H     4.25000000  17.85000038  47.09000015
H     4.94000006  18.96999931  45.86999893
S    16.01000023  15.77000046  48.93000031
C    18.48999977  15.11999989  48.15000153
C    17.28000069  15.67999935  47.83000183
C    16.90000153  16.07999992  46.45000076
C    17.87999916  16.09000015  45.56000137
C    19.19999886  15.57000065  45.86000061
C    20.28000069  15.47999954  44.93000031
C    21.53000069  15.05000019  45.37000275
C    21.80000114  14.60000038  46.68000031
C    20.72000122  14.47000027  47.54000092
C    19.50000000  15.07999992  47.15999985
C    15.53999996  16.28000069  46.39999771
C    14.85999966  16.09000015  47.63000107
C    13.43999958  16.03999901  47.74000168
C    23.21000099  14.18000031  47.06999969
H    23.54319763  14.52768135  48.04785538
H    18.68000031  14.85000038  49.18000031
H    17.57999992  16.38000107  44.54999924
H    20.15000153  16.07999992  44.02999878
H    22.36000061  15.27999973  44.68999863
H    20.72000122  14.09000015  48.55999756
H    12.98999977  15.88000107  48.72000122
H    23.87000084  14.50000000  46.25999832
H    23.26000023  13.07999992  47.04000092
S    11.71000004  17.05000114  50.75000000
C     9.11000061  17.30999947  51.47999573
C    10.32999992  16.90999985  51.79999924
C    10.60999966  16.51000023  53.11999893
C     9.67000008  16.36999893  54.13000107
C     8.34999943  16.77000046  53.77999878
C     7.36000013  16.69999886  54.75000000
C     6.11999989  17.13000107  54.48999786
C     5.78999996  17.61000061  53.16999817
C     6.77999973  17.81999969  52.28000259
C     8.06999969  17.31999969  52.45999908
C    12.07999992  16.45000076  53.31999969
C    12.77999973  16.70999908  52.09999847
C    14.17000008  16.64999962  51.97000122
C     4.32000017  17.94000053  52.80000305
H     4.05601072  17.41915512  51.87960815
H     8.92000008  17.86000061  50.56000137
H     9.88000011  16.05999947  55.14999771
H     7.55999994  16.18999863  55.70000076
H     5.32999992  16.87999916  55.19000244
H     6.65999985  18.07999992  51.24000168
H    14.75000000  16.87999916  51.07999802
H     3.63999987  17.67000008  53.61999893
H     4.25000000  19.02000046  52.68000031
S    15.39999962  15.67999935  55.61000061
C    18.00000000  15.39999962  54.80999756
C    16.72000122  15.72000027  54.47999954
C    16.28999901  16.21000099  53.15999985
C    17.34000015  16.27000046  52.23999786
C    18.65999985  15.85000038  52.52999878
C    19.69000053  15.95000076  51.59999847
C    20.95000076  15.65999985  51.86999893
C    21.38000107  15.22999954  53.16999817
C    20.42000008  15.07999992  54.15999985
C    19.04999924  15.38000011  53.82999802
C    14.88999939  16.45000076  53.13000107
C    14.21000004  16.11999893  54.40000153
C    12.82999992  16.09000015  54.45999908
C    22.77000046  14.88000011  53.43999863
H    23.04959488  15.36230278  54.37664795
H    18.22999954  15.21000004  55.86000061
H    17.18000031  16.63999939  51.23000336
H    19.30999947  16.22999954  50.61999893
H    21.56999969  15.57999992  50.97999954
H    20.65000153  14.63999939  55.12000275
H    12.30999947  15.75000000  55.34999847
H    23.43000031  15.25000000  52.63999939
H    22.93000031  13.78999901  53.43000031
