96

S    12.39999962  16.45000076  44.58000183
C     9.78999996  17.02000046  45.25000000
C    11.03000069  16.57999992  45.63999939
C    11.36999989  16.14999962  46.93000031
C    10.29000092  15.98000050  47.84000015
C     9.03999996  16.45000076  47.51999664
C     8.03999996  16.46000099  48.43999863
C     6.81999969  16.82999992  48.08000183
C     6.54999971  17.56000137  46.90000153
C     7.55999994  17.59000015  45.97000122
C     8.82000065  17.01000023  46.25999832
C    12.84999943  15.90000057  47.09000015
C    13.50000000  16.10999870  45.90999985
C    14.85999966  16.01000023  45.72000122
C     5.12000036  17.95999908  46.51000214
H     4.73895454  17.44967079  45.62543106
H     9.63000011  17.60000038  44.34000015
H    10.48999977  15.59000015  48.83999634
H     8.26000023  16.03999901  49.41999817
H     5.98000002  16.61999893  48.73000336
H     7.25000000  17.80999947  44.94999695
H    15.31999969  16.31000137  44.78000259
H     4.46000004  17.84000015  47.37999725
H     5.07999992  19.04000092  46.33999634
S    16.06999969  15.31000042  49.47000122
C    18.67000008  15.06999969  48.61000061
C    17.38000107  15.39999962  48.27000046
C    17.09000015  15.73999977  46.91999817
C    18.05999947  15.84000015  45.90999985
C    19.42000008  15.64000034  46.25999832
C    20.39999962  15.53999996  45.27999878
C    21.60000038  14.93000031  45.63999939
C    21.94000053  14.65999985  46.97999954
C    21.02000046  14.75000000  47.97999954
C    19.71999931  15.22999954  47.64999771
C    15.65000057  15.73999977  46.84999847
C    14.96000099  15.59000015  48.13000107
C    13.55999947  15.57000065  48.20000076
C    23.36999893  14.22000027  47.29999924
H    23.82103729  14.80981636  48.09798431
H    18.89999962  14.55000019  49.54000092
H    17.71000099  15.95999908  44.88999939
H    20.25000000  15.65000057  44.20999908
H    22.26000023  14.60000038  44.85000229
H    21.14000130  14.47999954  49.02000046
H    13.09999943  15.31000042  49.15000153
H    23.85999870  14.40999985  46.33999634
H    23.26000023  13.15000057  47.51999664
S    12.00000000  16.84999847  50.97000122
C     9.31999969  17.06999969  51.84000015
C    10.62999916  16.69000053  52.08000183
C    10.95999908  16.42000008  53.47999954
C    10.03999901  16.36000061  54.45999908
C     8.67000008  16.65999985  54.15000153
C     7.67000008  16.60000038  55.12000275
C     6.38999987  17.02000046  54.79999924
C     6.07999992  17.40999985  53.50000000
C     7.00000000  17.38000107  52.52999878
C     8.34999943  17.02999878  52.83000183
C    12.38999939  16.46000099  53.60000229
C    13.05999947  16.72999954  52.31999969
C    14.50000000  16.87000084  52.31999969
C     4.69999981  18.02000046  53.18999863
H     4.31635094  17.58054733  52.26924133
H     9.15999985  17.53000069  50.86999893
H    10.27999973  16.18999863  55.51000214
H     7.92999983  16.38000107  56.14999771
H     5.65000010  16.88999939  55.58000183
H     6.80999994  17.70000076  51.51000214
H    14.98999977  16.97000122  51.36000061
H     4.00999975  17.90999985  54.02999878
H     4.86999989  19.10000038  53.18000031
S    15.57000065  15.46000004  55.84999847
C    18.27000046  15.06000042  55.08999634
C    17.01000023  15.54999924  54.79999924
C    16.64999962  16.14999962  53.54999924
C    17.64999962  16.26000023  52.64999771
C    18.98999977  15.75000000  52.81999969
C    20.03999901  15.65000057  51.81999969
C    21.31000137  15.17000008  52.09000015
C    21.61000061  14.81999969  53.39000320
C    20.62999916  14.80999947  54.34999847
C    19.27999878  15.14999962  54.10999680
C    15.21999931  16.53000069  53.43000031
C    14.56999969  16.23999977  54.64000320
C    13.17999935  16.36000061  54.75000000
C    23.01000214  14.60999966  53.83999634
H    23.10939217  14.78038406  54.91199875
H    18.45999908  14.73000050  56.11000061
H    17.43999863  16.65999985  51.65999985
H    19.73999977  15.90000057  50.80999756
H    21.98999786  15.03000069  51.25999832
H    20.76000023  14.52999973  55.38999939
H    12.71000004  16.28000069  55.72999954
H    23.51000023  15.43000031  53.30999756
H    23.31999969  13.57999992  53.61999893
