96

S    12.38000011  16.46999931  43.96999741
C     9.75000000  16.95999908  44.79000092
C    11.03999996  16.53000069  45.05000305
C    11.44000053  16.13000107  46.42000198
C    10.40999985  15.98999977  47.36000061
C     9.10000038  16.44000053  47.11000061
C     8.07999992  16.44000053  48.15999985
C     6.86999989  16.88999939  47.90999985
C     6.48999977  17.46999931  46.63000107
C     7.46999979  17.46000099  45.61000061
C     8.78999996  16.92000008  45.79000092
C    12.84000015  15.82999992  46.52000046
C    13.50999928  16.03999901  45.27999878
C    14.84000015  16.04999924  45.15999603
C     5.03999996  17.80999947  46.32999802
H     4.76717424  17.27870750  45.41819000
H     9.56999969  17.56000137  43.90999603
H    10.69000053  15.75000000  48.37999725
H     8.34000015  15.93999958  49.09000015
H     6.02999973  16.76000023  48.59000397
H     7.21000004  18.07999992  44.75999832
H    15.24000072  16.13000107  44.15000153
H     4.38000011  17.39999962  47.11000061
H     4.94000006  18.89000130  46.24000168
S    16.04999924  15.29000092  48.86000061
C    18.73999977  14.88999939  48.06999969
C    17.42000008  15.31000042  47.78999710
C    17.04000092  15.77000046  46.46999741
C    18.01000023  15.81999969  45.45999908
C    19.36000061  15.34000015  45.66999817
C    20.32999992  15.26000023  44.68999863
C    21.61999893  14.80999947  44.91000366
C    21.97999954  14.44000053  46.20999908
C    21.01000023  14.39000034  47.18999863
C    19.67000008  14.80000019  46.97000122
C    15.65000057  15.78999996  46.30000305
C    14.96999931  15.52999973  47.50999832
C    13.57999992  15.48999977  47.63000107
C    23.39999962  14.07999992  46.65000153
H    23.54211617  14.48503304  47.65192413
H    18.98999977  14.63000107  49.09999847
H    17.68000031  16.04999924  44.45000076
H    19.97999954  15.55999947  43.70999908
H    22.34999847  14.68999958  44.10999680
H    21.28000069  14.06000042  48.18999863
H    13.01000023  15.38000011  48.54999924
H    24.15999985  14.44000053  45.93999863
H    23.50000000  12.97999954  46.60999680
S    12.27000046  16.98999977  50.56999969
C     9.48000050  17.32999992  51.31999969
C    10.78999996  17.04000092  51.63000107
C    11.17000008  16.60000038  52.95000076
C    10.18000031  16.46999931  53.93000031
C     8.85000038  16.84999847  53.66000366
C     7.83999968  16.77999878  54.65000153
C     6.51999998  17.11000061  54.38000107
C     6.17999983  17.71000099  53.11999893
C     7.13999987  17.75000000  52.11999893
C     8.48999977  17.30999947  52.36999893
C    12.69000053  16.43000031  53.13999939
C    13.35999966  16.46999931  51.88999939
C    14.78000069  16.45000076  51.81999969
C     4.75000000  18.17000008  52.78999710
H     4.27842140  17.52693939  52.04690552
H     9.25000000  17.86000061  50.40000153
H    10.40999985  16.25000000  54.97000122
H     8.14999962  16.53000069  55.65999985
H     5.79999971  17.20000076  55.19000244
H     6.93000031  18.20000076  51.14999771
H    15.34999943  16.52000046  50.90000153
H     4.17000008  18.19000053  53.72000122
H     4.75000000  19.19000053  52.39999771
S    15.77999973  15.73999977  55.58000183
C    18.45000076  15.19000053  55.00000000
C    17.23999977  15.67000008  54.58000183
C    16.90999985  16.10999870  53.27999878
C    17.89999962  16.07999992  52.32999802
C    19.19999886  15.71000004  52.69000244
C    20.25000000  15.80000019  51.75000000
C    21.50000000  15.21000004  52.00000000
C    21.75000000  14.65000057  53.26000214
C    20.76999855  14.61999989  54.23999786
C    19.47000122  15.11999989  53.95999908
C    15.44999981  16.27000046  53.02000046
C    14.75999928  16.14999962  54.23999786
C    13.42000008  16.26000023  54.29000092
C    23.19000053  14.25000000  53.66000366
H    23.50549698  14.79183006  54.55162048
H    18.50000000  14.98000050  56.05999756
H    17.63000107  16.28999901  51.30000305
H    19.92000008  16.15999985  50.77999878
H    22.22999954  15.21999931  51.19999695
H    20.90999985  14.23999977  55.25000000
H    12.86999893  16.34000015  55.21999741
H    23.82999802  14.47999954  52.78999710
H    23.11000061  13.19000053  53.92000198
