96

S    12.39999962  17.00000000  44.34000015
C     9.80000019  17.20000076  45.13999939
C    11.06999969  16.79000092  45.38000107
C    11.36999989  16.18999863  46.66999817
C    10.42000008  16.18000031  47.72999573
C     9.10000038  16.55999947  47.43999863
C     8.00000000  16.39000130  48.34999847
C     6.72999954  16.69999886  48.06000137
C     6.38000011  17.23999977  46.76000214
C     7.42999983  17.38000107  45.84999847
C     8.80000019  17.10000038  46.14999771
C    12.79000092  16.14999962  46.88000107
C    13.55000019  16.59000015  45.66999817
C    14.89999962  16.63999939  45.61000061
C     4.92000008  17.48999977  46.31999969
H     4.64904213  16.81626701  45.50712585
H     9.51000023  17.39999962  44.10999680
H    10.64000034  15.75000000  48.69999695
H     8.22000027  15.90999985  49.29999924
H     5.91000032  16.40999985  48.70999908
H     7.11999989  17.69000053  44.85000229
H    15.43000031  16.95000076  44.71000290
H     4.33999968  17.21999931  47.22000122
H     4.71000004  18.53000069  46.05999756
S    15.90999985  15.22999954  49.27999878
C    18.54999924  14.85999966  48.54999924
C    17.34000015  15.44000053  48.22999954
C    17.05000114  15.88999939  46.91999817
C    18.06999969  15.97000027  45.91999817
C    19.34000015  15.44000053  46.22000122
C    20.36000061  15.31999969  45.25000000
C    21.54999924  14.70000076  45.50000000
C    21.81999969  14.14999962  46.79999924
C    20.88000107  14.30999947  47.80000305
C    19.60000038  14.88000011  47.55000305
C    15.59000015  16.13999939  46.79000092
C    14.85999966  15.82999992  48.02000046
C    13.50000000  15.85999966  48.02999878
C    23.23999786  13.85000038  47.11000061
H    23.60485268  14.59429836  47.81781387
H    18.68999863  14.19999981  49.40000153
H    17.88999939  16.20000076  44.86999893
H    20.20000076  15.67000008  44.23999786
H    22.30999947  14.86999989  44.73999786
H    21.12999916  13.96000004  48.80000305
H    12.96000004  15.40999985  48.86000061
H    23.81000137  13.86000061  46.17000198
H    23.44000053  12.82999992  47.45999908
S    12.23999977  17.11000061  51.12999725
C     9.52000046  17.00000000  51.63999939
C    10.81999969  16.77999878  52.09000015
C    11.05999947  16.28000069  53.43000031
C    10.06999969  16.07999992  54.34000015
C     8.73999977  16.29999924  53.93000031
C     7.72000027  16.10000038  54.79999924
C     6.47000027  16.61999893  54.54999924
C     6.10000038  17.23999977  53.25000000
C     7.13999987  17.29999924  52.38999939
C     8.43999958  16.80999947  52.61000061
C    12.51000023  16.39000130  53.68999863
C    13.26000023  16.77000046  52.50000000
C    14.65999985  16.87999916  52.41000366
C     4.75000000  17.82999992  52.87000275
H     4.18489170  17.13613319  52.24766541
H     9.30000019  17.68000031  50.81999969
H    10.26999950  15.57999992  55.28999710
H     7.92999983  15.70000076  55.79000092
H     5.73999977  16.75000000  55.34000015
H     7.04999971  17.70000076  51.38000107
H    15.11999989  17.23999977  51.50000000
H     4.21000004  17.95999908  53.81000137
H     4.88999987  18.82999992  52.42000198
S    15.65000057  15.38000011  55.93000031
C    18.39999962  15.01999950  55.21999741
C    17.13999939  15.52000046  54.97000122
C    16.79000092  16.01000023  53.68000031
C    17.78000069  16.02000046  52.65999603
C    19.05999947  15.53999996  52.90999985
C    20.06999969  15.50000000  51.90000153
C    21.31000137  15.08999920  52.09999847
C    21.75000000  14.61999989  53.39000320
C    20.76000023  14.63999939  54.40000153
C    19.43000031  15.07999992  54.22999954
C    15.39000034  16.28999901  53.48999786
C    14.60000038  15.93999958  54.62999725
C    13.27000046  16.04999924  54.78000259
C    23.16999817  14.32999992  53.69999695
H    23.42643738  14.70425892  54.69109344
H    18.55999947  14.46000004  56.13999939
H    17.42000008  16.26000023  51.65999985
H    19.85000038  15.98000050  50.94999695
H    21.94000053  15.13000011  51.20999908
H    20.93000031  14.25000000  55.40000153
H    12.75000000  15.62999916  55.61999893
H    23.92000008  14.63999939  52.95999908
H    23.35000038  13.25000000  53.66000366
