96

S    12.64000034  16.88999939  44.00000000
C     9.92000008  17.17000008  44.47999954
C    11.11999989  16.87000084  44.98000336
C    11.28999901  16.28999901  46.27999878
C    10.19000053  16.14999962  47.14000320
C     8.97000027  16.61999893  46.65999985
C     7.85000038  16.67000008  47.56000137
C     6.58999968  17.15999985  47.19999695
C     6.35999966  17.75000000  45.91999817
C     7.44999981  17.78000069  45.08999634
C     8.76999950  17.17000008  45.34000015
C    12.75000000  16.03999901  46.51000214
C    13.55000019  16.35000038  45.37000275
C    14.92000008  16.28999901  45.40000153
C     5.00000000  18.20000076  45.51000214
H     4.61381197  17.44166946  44.82890701
H     9.82999992  17.70000076  43.54000092
H    10.34999943  15.93000031  48.20000076
H     7.95000029  16.34000015  48.59000397
H     5.75999975  17.05000114  47.88999939
H     7.17000008  18.25000000  44.15000153
H    15.62000084  16.52000046  44.59999847
H     4.30000019  18.13999939  46.35000229
H     4.90999985  19.13999939  44.94999695
S    15.70000076  14.98000050  49.06000137
C    18.39999962  14.72000027  48.55999756
C    17.15999985  15.11999989  48.09999847
C    16.90999985  15.59000015  46.79999924
C    17.95999908  15.65999985  45.84999847
C    19.26000023  15.21999931  46.23000336
C    20.40999985  15.39999962  45.34000015
C    21.61000061  14.78000069  45.65000153
C    21.73000145  14.14999962  46.90999985
C    20.73999786  14.22999954  47.87000275
C    19.43000031  14.73000050  47.62000275
C    15.52999973  16.00000000  46.62000275
C    14.68999958  15.55999947  47.71999741
C    13.30999947  15.52000046  47.65999603
C    23.05000114  13.71999931  47.29000092
H    23.41160011  14.31107521  48.13141251
H    18.44000053  14.18000031  49.50000000
H    17.79000092  16.06999969  44.86000061
H    20.10000038  15.92000008  44.43999863
H    22.43999863  14.73999977  44.94999695
H    20.89999962  13.86999989  48.88000107
H    12.69999981  15.31000042  48.54000092
H    23.78000069  13.71000099  46.46999741
H    22.98000145  12.69000053  47.65999603
S    11.94000053  16.77000046  50.52000046
C     9.27999973  17.02999878  51.24000168
C    10.54999924  16.80999947  51.63000107
C    10.88000107  16.45000076  52.93000031
C     9.88000011  16.32999992  53.89999771
C     8.53999996  16.51000023  53.52000427
C     7.50000000  16.54000092  54.52000046
C     6.21000004  16.87999916  54.22000122
C     6.03999996  17.38000107  52.90000153
C     6.96000004  17.38000107  51.91999817
C     8.25000000  16.90000153  52.21000290
C    12.30999947  16.45000076  53.15000153
C    13.01000023  16.59000015  51.91999817
C    14.42000008  16.56999969  51.93000031
C     4.65999985  17.80999947  52.54000092
H     4.14315748  17.11369896  51.87959290
H     9.13999939  17.47999954  50.26000214
H    10.21000004  16.10999870  54.92000198
H     7.82000017  16.36999893  55.54000092
H     5.36999989  16.87000084  54.89999771
H     6.80000019  17.78000069  50.91999817
H    14.94999981  16.62999916  50.98999786
H     4.17000008  17.89999962  53.52000427
H     4.76000023  18.79999924  52.06999969
S    15.36000061  15.69000053  55.70000076
C    18.04000092  15.19999981  55.18000031
C    16.77999878  15.54999924  54.71000290
C    16.53000069  15.84000015  53.34000015
C    17.54999924  15.80000019  52.42000198
C    18.82999992  15.44000053  52.84999847
C    19.88999939  15.42000008  51.93000031
C    21.15999985  15.05000019  52.25999832
C    21.38999939  14.67000008  53.56999969
C    20.40999985  14.81999969  54.55999756
C    19.06999969  15.18000031  54.25000000
C    15.07999992  16.20000076  53.15000153
C    14.32000065  16.01000023  54.29999924
C    12.98999977  16.10000038  54.34999847
C    22.82999992  14.27999973  53.97999573
H    23.11741447  14.66800880  54.95720673
H    18.18000031  15.06999969  56.25000000
H    17.27000046  16.17000008  51.44000244
H    19.63000107  15.73999977  50.91999817
H    22.00000000  15.15999985  51.56999969
H    20.62000084  14.59000015  55.59999847
H    12.46000099  15.78999996  55.25000000
H    23.43000031  14.60000038  53.11000061
H    22.86999893  13.19000053  54.02000046
