96

S    12.51999950  17.11000061  44.15999985
C     9.89000034  17.34000015  44.72000122
C    11.17000008  17.02999878  45.13000107
C    11.44999981  16.51000023  46.44000244
C    10.40999985  16.51000023  47.36999893
C     9.06999969  16.94000053  47.02000046
C     8.00000000  16.87000084  47.95999908
C     6.80000019  17.31999969  47.56999969
C     6.44999981  17.57999992  46.20999908
C     7.44999981  17.69000053  45.34999847
C     8.82000065  17.38999939  45.70000076
C    12.92000008  16.34000015  46.63000107
C    13.64999962  16.79999924  45.47999954
C    14.98999977  16.97999954  45.52999878
C     5.03000021  17.95999908  45.84999847
H     4.73860598  17.53057671  44.89146423
H     9.59999943  17.47999954  43.68000031
H    10.57000065  16.15999985  48.39000320
H     8.13000011  16.39999962  48.93000031
H     5.98999977  17.20999908  48.27999878
H     7.26999998  17.92000008  44.29999924
H    15.44000053  17.28000069  44.58000183
H     4.30999994  17.52000046  46.55000305
H     4.76000023  19.02000046  45.81999969
S    16.13999939  15.52999973  49.06000137
C    18.75000000  15.34000015  48.31999969
C    17.45000076  15.73999977  48.01000214
C    17.11000061  16.36000061  46.76000214
C    18.05999947  16.50000000  45.70999908
C    19.31999969  15.90999985  45.97999954
C    20.32999992  15.81999969  44.98000336
C    21.54000092  15.14999962  45.19000244
C    21.87000084  14.68000031  46.46999741
C    20.97999954  14.82999992  47.49000168
C    19.69000053  15.44000053  47.29999924
C    15.67999935  16.57999992  46.66999817
C    14.98999977  16.13000107  47.81000137
C    13.56999969  16.03000069  47.84000015
C    23.25000000  14.21000004  46.79999924
H    23.61780548  14.85186005  47.60052109
H    19.05999947  14.80000019  49.20999908
H    17.87999916  16.88999939  44.72000122
H    20.15999985  16.22999954  43.99000168
H    22.32999992  15.26000023  44.45000076
H    21.22999954  14.32000065  48.41999817
H    12.97999954  15.69000053  48.68999863
H    23.88999939  14.06000042  45.91999817
H    23.13999939  13.23999977  47.29999924
S    15.77000046  13.15000057  52.27000427
C    18.44000053  12.84999943  51.37000275
C    17.10000038  12.61000061  51.14999771
C    16.51000023  12.18999958  49.89999771
C    17.42000008  11.69999981  48.96999741
C    18.81999969  11.69999981  49.19000244
C    19.71999931  11.21999931  48.23999786
C    21.02000046  11.09000015  48.41999817
C    21.61000061  11.61000061  49.61999893
C    20.79999924  12.23000050  50.56000137
C    19.36000061  12.36999989  50.38999939
C    15.07999992  12.23999977  49.89999771
C    14.53999996  12.79999924  51.06999969
C    13.20000076  13.12000084  51.11000061
C    23.16999817  11.36000061  49.92000198
H    23.50471115  11.72957802  50.88927078
H    18.88000107  13.31999969  52.23999786
H    17.02999878  11.46999931  47.97999954
H    19.27999878  10.85000038  47.31999969
H    21.64999962  10.53999996  47.72999573
H    21.18999863  12.51999950  51.52999878
H    12.79999924  13.43999958  52.06999969
H    23.29999924  10.26999950  49.79999924
H    23.72999954  11.77000046  49.08000183
S    11.77000046  12.22000027  47.57999802
C     9.15000057  12.92000008  48.34000015
C    10.46000004  12.81999969  48.62999725
C    10.95999908  13.12999916  49.97000122
C    10.08999920  13.56999969  50.96000290
C     8.67999935  13.68000031  50.68000031
C     7.76000023  14.09999943  51.62000275
C     6.48999977  14.35999966  51.25000000
C     6.05000019  14.22000027  49.86999893
C     6.90999985  13.63999939  48.97999573
C     8.23000050  13.35999966  49.34999847
C    12.36999989  12.93000031  50.00000000
C    12.92000008  12.48000050  48.86000061
C    14.22000027  11.92000008  48.86000061
C     4.65999985  14.65999985  49.48999786
H     4.41522694  14.32003689  48.48371124
H     8.78000069  12.68000031  47.35000229
H    10.40999985  13.81000042  51.97000122
H     8.14999962  14.34000015  52.61000061
H     5.84999990  14.73999977  52.04000092
H     6.51000023  13.53999996  47.97999954
H    14.68999958  11.54000092  47.95999908
H     4.53000021  15.75000000  49.52000046
H     3.98000002  14.14999962  50.19000244
