96

S    12.17000008  16.38000107  43.88999939
C     9.63999939  16.95000076  44.71000290
C    10.88000107  16.50000000  45.04000092
C    11.11999989  15.95000076  46.32999802
C    10.17000008  15.88999939  47.25999832
C     8.80999947  16.31000137  47.00000000
C     7.78999996  16.36000061  47.94000244
C     6.54999971  16.81999969  47.63000107
C     6.30000019  17.20999908  46.30000305
C     7.30999994  17.26000023  45.40000153
C     8.59000015  16.84000015  45.70000076
C    12.56000042  15.90999985  46.45000076
C    13.25000000  16.04999924  45.24000168
C    14.68000031  16.14999962  45.21999741
C     4.90000010  17.64000130  45.93000031
H     4.53679943  16.99193573  45.13238144
H     9.36999989  17.46999931  43.79000092
H    10.42000008  15.54999924  48.26000214
H     8.10999966  16.20000076  48.95999908
H     5.84000015  16.97000122  48.43000031
H     7.11000013  17.59000015  44.38000107
H    15.26999950  16.35000038  44.31999969
H     4.34999990  17.72999954  46.86999893
H     5.01999950  18.63000107  45.45999908
S    15.59000015  15.27999973  49.00000000
C    18.22999954  14.86999989  48.33000183
C    17.02000046  15.26000023  47.95999908
C    16.75000000  15.72999954  46.63000107
C    17.72999954  15.85999966  45.68999863
C    19.03000069  15.47999954  46.09000397
C    20.15000153  15.57000065  45.19000244
C    21.37000084  15.11000061  45.59999847
C    21.60000038  14.52999973  46.90999985
C    20.61000061  14.53999996  47.85999680
C    19.34999847  15.01999950  47.42000198
C    15.29999924  15.92000008  46.43000031
C    14.57999992  15.78999996  47.62000275
C    13.17999935  15.77999973  47.62000275
C    23.00000000  14.04000092  47.22000122
H    23.33032036  14.59053421  48.10085297
H    18.44000053  14.22000027  49.18000031
H    17.63000107  16.31999969  44.71000290
H    19.95000076  15.98999977  44.20999908
H    22.27999878  15.11999989  45.00999832
H    20.79000092  14.01000023  48.79000092
H    12.51000023  15.51000023  48.43000031
H    23.62999916  14.28999996  46.35000229
H    22.89999962  12.96000004  47.34000397
S    16.22999954  12.69999981  52.15000153
C    18.86999893  12.18999958  51.27999878
C    17.56000137  12.13000107  51.07999802
C    17.02999878  11.65999985  49.84000397
C    17.86000061  11.36999989  48.74000168
C    19.29000092  11.39000034  48.88000107
C    20.22000122  10.80999947  47.97000122
C    21.51000023  10.62999916  48.27000046
C    22.00000000  11.14999962  49.52000046
C    21.07999992  11.59000015  50.47999954
C    19.72999954  11.69000053  50.21999741
C    15.55999947  11.90000057  49.78000259
C    14.98999977  12.34000015  51.00000000
C    13.63999939  12.53999901  51.14999771
C    23.47999954  10.92000008  49.94999695
H    23.67495918  11.19155216  50.98746872
H    19.22000122  12.43999958  52.28000259
H    17.35000038  10.86999989  47.91999817
H    19.90999985  10.48999977  46.97999954
H    22.18000031  10.18000031  47.52999878
H    21.44000053  11.85999966  51.46999741
H    13.25000000  12.84000015  52.12999725
H    23.72999954   9.89000034  49.66999817
H    24.05999947  11.59999943  49.31999969
S    12.11999989  11.64000034  47.57999802
C     9.48000050  12.35999966  48.36000061
C    10.82999992  12.10999966  48.68999863
C    11.38000011  12.43999958  49.94999695
C    10.54999924  12.90999985  50.90000153
C     9.15999985  13.12999916  50.61000061
C     8.26000023  13.73999977  51.59000015
C     6.97000027  13.94999981  51.40999603
C     6.42000008  13.67000008  50.14999771
C     7.20000029  13.09999943  49.16999817
C     8.60000038  12.88000011  49.34000015
C    12.79000092  12.31999969  50.04000092
C    13.32999992  11.96000004  48.76999664
C    14.70000076  11.76000023  48.68999863
C     5.10999966  14.09000015  49.79999924
H     4.84877682  13.72719002  48.80590057
H     9.07999992  12.25000000  47.36000061
H    10.92000008  13.12000084  51.88999939
H     8.67999935  13.96999931  52.56999969
H     6.38999987  14.40999985  52.21000290
H     6.85999966  12.94999981  48.15000153
H    15.10000038  11.23000050  47.83000183
H     5.07000017  15.18000031  49.93000031
H     4.59999990  13.66000080  50.66999817
