96

S    12.17000008  16.82999992  44.34999847
C     9.52999973  17.30999947  45.26000214
C    10.78999996  16.94000053  45.56999969
C    11.13999939  16.48999977  46.84999847
C    10.19999981  16.32999992  47.80000305
C     8.85000038  16.65999985  47.52999878
C     7.77999973  16.42000008  48.43000031
C     6.51999998  16.81999969  48.16999817
C     6.21000004  17.45000076  46.93000031
C     7.17999983  17.70000076  45.97000122
C     8.48999977  17.19000053  46.22000122
C    12.53000069  16.11999893  46.84999847
C    13.27000046  16.34000015  45.63999939
C    14.63000107  16.21000099  45.59000015
C     4.80999994  17.78000069  46.63000107
H     4.50197840  17.22842598  45.74175262
H     9.28999996  17.80999947  44.33000183
H    10.48999977  15.90999985  48.75999832
H     7.97999954  15.95000076  49.38999939
H     5.80999947  16.70999908  48.97999573
H     6.84000015  18.01000023  44.98000336
H    15.21000004  16.52000046  44.72999954
H     4.21999979  17.38999939  47.47000122
H     4.65000010  18.84000015  46.38000107
S    15.59999943  15.29999924  49.27000046
C    18.23999977  14.96000099  48.61000061
C    17.05000114  15.39999962  48.22000122
C    16.72000122  15.84000015  46.90000153
C    17.70000076  15.86999989  45.90000153
C    19.00000000  15.44000053  46.26999664
C    20.13000107  15.44999981  45.34000015
C    21.38999939  15.14000034  45.63999939
C    21.57999992  14.67000008  47.00000000
C    20.52999878  14.52999973  47.90000153
C    19.25000000  14.93000031  47.60000229
C    15.26999950  15.92000008  46.73999786
C    14.59000015  15.67999935  47.88999939
C    13.25000000  15.73999977  47.98999786
C    22.93999863  14.19999981  47.47000122
H    23.31900406  14.74523354  48.33439255
H    18.44000053  14.63000107  49.62999725
H    17.46000099  16.04999924  44.86000061
H    20.03000069  15.70000076  44.29000092
H    22.21999931  15.38000011  44.98000336
H    20.65000153  14.09000015  48.88999939
H    12.71000004  15.88999939  48.92000198
H    23.59999847  14.14999962  46.59999847
H    22.88000107  13.12000084  47.64999771
S    11.61999893  17.31999969  51.04999924
C     8.93000031  17.46000099  51.84000015
C    10.25000000  17.12000084  52.09000015
C    10.62000084  16.63999939  53.43999863
C     9.61999989  16.46999931  54.34999847
C     8.31999969  16.80999947  54.03999710
C     7.26000023  16.68000031  55.00999832
C     6.01999998  17.09000015  54.72000122
C     5.63000011  17.28000069  53.40999985
C     6.60000038  17.56999969  52.45999908
C     7.96999979  17.34000015  52.77000046
C    12.07999992  16.60000038  53.55999756
C    12.75000000  16.76000023  52.29999924
C    14.13000011  16.72999954  52.18999863
C     4.13000011  17.46999931  53.11000061
H     3.82947111  17.15549278  52.11056519
H     8.55000019  17.89999962  50.91999817
H     9.81000042  16.22999954  55.38999939
H     7.46999979  16.29999924  56.00999832
H     5.38999987  17.39999962  55.54999924
H     6.34000015  18.07999992  51.53999710
H    14.68999958  16.90999985  51.27999878
H     3.51000023  17.01000023  53.88999939
H     4.00000000  18.53999901  53.31999969
S    15.17000008  15.57999992  55.93999863
C    17.78000069  15.29999924  55.20000076
C    16.54000092  15.60999966  54.87999725
C    16.26000023  16.17000008  53.57999802
C    17.21999931  16.40999985  52.62000275
C    18.51000023  15.85999966  52.81000137
C    19.57999992  15.93000031  51.88999939
C    20.84000015  15.48999977  52.22999954
C    21.07999992  14.96000099  53.53000259
C    20.10000038  15.06000042  54.51000214
C    18.78000069  15.36999893  54.15999985
C    14.77000046  16.36000061  53.34999847
C    14.09999943  16.15999985  54.56999969
C    12.76000023  16.29999924  54.72999954
C    22.56000137  14.56999969  53.97999573
H    22.92748833  15.17776585  54.80684280
H    18.02999878  14.84000015  56.16000366
H    16.98999977  16.68000031  51.59000015
H    19.47999954  16.46000099  50.94999695
H    21.60000038  15.53999996  51.45000076
H    20.15000153  14.70000076  55.52999878
H    12.25000000  15.93999958  55.63000107
H    23.29000092  14.60000038  53.15999985
H    22.47999954  13.56999969  54.41999817
