96

S    12.55000019  16.67000008  44.27999878
C     9.89999962  17.22999954  45.06999969
C    11.09000015  16.65999985  45.33000183
C    11.36000061  16.10999870  46.63999939
C    10.34999943  16.10999870  47.56999969
C     9.06000042  16.59000015  47.29000092
C     7.97999954  16.55999947  48.25000000
C     6.75000000  17.05000114  47.98999786
C     6.51000023  17.51000023  46.63000107
C     7.48000050  17.50000000  45.72999954
C     8.76000023  17.01000023  45.96000290
C    12.81999969  16.03999901  46.83000183
C    13.55000019  16.26000023  45.63000107
C    14.96000099  16.42000008  45.63999939
C     5.09999990  17.86000061  46.23000336
H     4.71425772  17.16129875  45.48762894
H     9.75000000  17.89999962  44.22000122
H    10.53999996  15.72000027  48.55999756
H     8.15999985  16.11999893  49.22999954
H     5.96000004  17.02000046  48.73000336
H     7.32999992  17.89999962  44.72999954
H    15.50000000  16.46000099  44.69999695
H     4.44999981  17.98999977  47.11000061
H     5.15999985  18.81000137  45.68999863
S    16.07999992  15.34000015  49.33000183
C    18.75000000  15.11000061  48.56999969
C    17.46000099  15.50000000  48.25000000
C    17.13999939  15.95000076  46.95999908
C    18.11000061  15.93999958  45.91999817
C    19.50000000  15.55999947  46.20999908
C    20.48000145  15.39999962  45.22999573
C    21.71999931  14.85999966  45.52999878
C    22.04000092  14.47999954  46.88999939
C    21.07000160  14.59000015  47.81999969
C    19.79999924  15.19000053  47.58999634
C    15.69000053  16.21000099  46.86000061
C    14.94999981  15.85999966  48.00000000
C    13.57999992  15.85000038  48.04000092
C    23.45000076  13.97999954  47.21000290
H    23.85807610  14.46546841  48.09650803
H    18.96000099  14.60999966  49.51000214
H    17.78000069  16.03000069  44.88999939
H    20.15999985  15.53999996  44.20000076
H    22.50999832  14.82999992  44.78000259
H    21.24000168  14.19000053  48.81999969
H    13.10999966  15.77000046  49.01000214
H    24.11000061  14.01999950  46.33999634
H    23.31000137  12.94000053  47.50999832
S    15.88999939  13.17999935  51.90999985
C    18.52000046  12.56000042  51.17000198
C    17.13999939  12.42000008  50.93000031
C    16.62999916  11.90999985  49.69999695
C    17.52000046  11.25000000  48.88000107
C    18.93000031  11.33999920  49.09000015
C    19.86999893  10.73999977  48.11000061
C    21.18000031  10.72000027  48.40000153
C    21.63000107  11.23999977  49.65000153
C    20.79999924  12.00000000  50.48999786
C    19.42000008  11.98999977  50.26000214
C    15.22999954  12.25999928  49.52999878
C    14.67000008  12.86000061  50.68999863
C    13.31999969  13.07999992  50.81999969
C    23.02999878  10.88000107  50.18000031
H    23.28823471  11.29714870  51.15334702
H    18.95000076  13.02999973  52.04999924
H    17.17000008  10.72999954  47.98999786
H    19.43000031  10.11999989  47.32999802
H    21.83000183  10.11999989  47.77999878
H    21.12999916  12.44999981  51.42000198
H    12.97000027  13.76000023  51.59000015
H    23.05000114   9.77999973  50.26000214
H    23.84000015  11.10000038  49.47000122
S    11.90000057  11.90000057  47.22999954
C     9.22999954  12.61000061  48.04999924
C    10.59000015  12.53000069  48.26000214
C    11.13000011  13.01000023  49.52999878
C    10.29000092  13.66000080  50.43000031
C     8.93000031  13.75000000  50.27000046
C     8.10000038  14.26000023  51.29000092
C     6.75000000  14.29999924  51.12999725
C     6.15000010  13.71000099  49.93000031
C     6.94999981  13.14000034  49.01000214
C     8.36999989  13.07999992  49.09999847
C    12.51000023  12.79999924  49.68000031
C    13.04999924  12.25000000  48.50999832
C    14.42000008  11.97999954  48.40000153
C     4.67000008  13.68999958  49.59000015
H     4.48774862  13.40961266  48.55256653
H     8.94999981  12.34000015  47.02999878
H    10.72999954  14.13000011  51.30000305
H     8.52999973  14.55000019  52.25000000
H     6.21999979  14.77000046  51.95000076
H     6.52999973  12.75000000  48.08000183
H    14.88000011  11.68000031  47.45999908
H     4.32999992  14.70000076  49.85000229
H     3.98999977  13.07000065  50.19000244
