96

S    12.13999939  17.12000084  44.26000214
C     9.43000031  17.39999962  45.00999832
C    10.72000027  16.97000122  45.34999847
C    11.05999947  16.54999924  46.65000153
C    10.06000042  16.45000076  47.58999634
C     8.71999931  16.73999977  47.32999802
C     7.71000004  16.77999878  48.33000183
C     6.46000004  17.12000084  48.04000092
C     6.09000015  17.54999924  46.72999954
C     7.05999947  17.46999931  45.66999817
C     8.39999962  17.31999969  46.00999832
C    12.51000023  16.31999969  46.79999924
C    13.22000027  16.54000092  45.59000015
C    14.59000015  16.39999962  45.52999878
C     4.73000002  17.88999939  46.30000305
H     4.30526924  17.14852142  45.62331009
H     9.07999992  17.65999985  44.01000214
H    10.39999962  16.27000046  48.61000061
H     8.13000011  16.69000053  49.33000183
H     5.77000046  16.90000153  48.85000229
H     6.81999969  17.78000069  44.65999985
H    15.15999985  16.62999916  44.64000320
H     4.05000019  17.94000053  47.15999985
H     4.74000025  18.89999962  45.86999893
S    15.53999996  15.32999992  49.18000031
C    18.30000114  14.96000099  48.41999817
C    17.00000000  15.34999943  48.13000107
C    16.67000008  15.90000057  46.84999847
C    17.60000038  16.21000099  45.89000320
C    18.89999962  15.78999996  46.11000061
C    19.97999954  15.82999992  45.06999969
C    21.21999931  15.44000053  45.34000015
C    21.55999947  14.88999939  46.53999710
C    20.63999939  14.78000069  47.52999878
C    19.27999878  15.14999962  47.36000061
C    15.26000023  16.03999901  46.68000031
C    14.50000000  15.80000019  47.88000107
C    13.15000057  15.95000076  47.97000122
C    22.95000076  14.61999989  46.90999985
H    23.24410820  15.11718369  47.83434296
H    18.48999977  14.37000084  49.31000137
H    17.28000069  16.46999931  44.88999939
H    19.64999962  16.26000023  44.13000107
H    22.00000000  15.47999954  44.58000183
H    20.94000053  14.35999966  48.48999786
H    12.44999981  15.85000038  48.80000305
H    23.78000069  14.70999908  46.18999863
H    22.92000008  13.55999947  47.18999863
S    16.39000130  12.79999924  52.11999893
C    18.90999985  12.23000050  51.31000137
C    17.61000061  12.18999958  51.05999756
C    17.10000038  11.73999977  49.79999924
C    18.00000000  11.39000034  48.80000305
C    19.40999985  11.33999920  49.03999710
C    20.43999863  11.10999966  48.06000137
C    21.75000000  11.03000069  48.41999817
C    22.14999962  11.23999977  49.79000092
C    21.19999886  11.59999943  50.72999954
C    19.84000015  11.65999985  50.38999939
C    15.65000057  11.94000053  49.75000000
C    15.14999962  12.51999950  50.94999695
C    13.80000019  12.86000061  51.14999771
C    23.54000092  10.76000023  50.24000168
H    23.91898537  11.16003990  51.18044662
H    19.34999847  12.61999989  52.22999954
H    17.61999893  11.21000099  47.80000305
H    20.06999969  11.05000019  47.04000092
H    22.50000000  10.72000027  47.70000076
H    21.42000008  11.97999954  51.72999954
H    13.43000031  13.21000004  52.11000061
H    23.61000061   9.67000008  50.27000046
H    24.23000145  11.10000038  49.45999908
S    12.11999989  11.84999943  47.67000198
C     9.68999958  12.65999985  48.43000031
C    11.00000000  12.63000011  48.70999908
C    11.57999992  13.15999985  49.86999893
C    10.67999935  13.64999962  50.80999756
C     9.26999950  13.66000080  50.58000183
C     8.38999939  14.23999977  51.53999710
C     7.03999996  14.15999985  51.31000137
C     6.52999973  13.81000042  50.04000092
C     7.40000010  13.26000023  49.10999680
C     8.80000019  13.17999935  49.34000015
C    12.97000027  12.76000023  50.00999832
C    13.48000050  12.13999939  48.81999969
C    14.80000019  11.79999924  48.64999771
C     5.09999990  13.78999901  49.75000000
H     4.81575394  13.49154091  48.74092865
H     9.30000019  12.35999966  47.45999908
H    11.07999992  13.96999931  51.77000046
H     8.78000069  14.75000000  52.41000366
H     6.35999966  14.73000050  51.93999863
H     6.97000027  12.92000008  48.16999817
H    15.26999950  11.50000000  47.71999741
H     4.65999985  14.78000069  49.93999863
H     4.61000013  13.14000034  50.47999954
