96

S    12.64999962  17.26000023  44.15000153
C     9.90999985  17.15999985  44.68000031
C    11.23999977  16.97999954  45.06999969
C    11.54000092  16.57999992  46.37000275
C    10.47999954  16.46000099  47.28000259
C     9.18000031  16.92000008  46.97999954
C     8.13000011  16.92000008  47.91999817
C     6.91999960  17.29999924  47.57999802
C     6.57999992  17.63000107  46.25999832
C     7.55999994  17.53999901  45.27999878
C     8.90999985  17.25000000  45.66999817
C    12.94999981  16.53000069  46.60999680
C    13.73999977  16.82999992  45.45999908
C    15.11000061  16.87000084  45.43000031
C     5.23000002  18.18000031  45.97000122
H     4.86137199  17.77592850  45.02716446
H     9.57999992  17.35000038  43.67000198
H    10.77000046  16.04999924  48.23999786
H     8.40999985  16.61000061  48.93000031
H     6.15999985  17.25000000  48.36000061
H     7.36000013  17.86000061  44.26000214
H    15.72999954  16.92000008  44.54000092
H     4.55000019  17.94000053  46.79000092
H     5.36000013  19.27000046  45.86000061
S    16.04999924  15.88000107  49.13000107
C    18.78999901  15.46000004  48.33000183
C    17.47999954  15.88999939  48.11000061
C    17.13000107  16.40999985  46.81000137
C    18.07999992  16.45000076  45.81999969
C    19.44000053  16.10000038  46.06999969
C    20.40999985  16.02000046  45.01999664
C    21.73000145  15.69000053  45.30000305
C    22.11999893  15.43000031  46.65000153
C    21.21000099  15.38000011  47.69000244
C    19.82999992  15.62000084  47.36999893
C    15.70000076  16.61999893  46.59000015
C    14.98000050  16.34000015  47.76000214
C    13.60000038  16.36999893  47.77000046
C    23.61000061  15.14999962  46.95999908
H    23.84222221  15.46930790  47.97597885
H    19.07999992  15.13000011  49.31999969
H    17.79000092  16.68000031  44.79999924
H    20.03999901  16.03000069  44.00000000
H    22.43000031  15.73999977  44.47000122
H    21.52000046  14.88000011  48.61999893
H    13.05999947  16.23999977  48.70999908
H    24.26000214  15.62000084  46.20999908
H    23.71999931  14.06000042  46.90999985
S    16.42000008  13.50000000  51.97000122
C    19.04000092  12.61000061  51.25000000
C    17.71000099  12.72999954  50.96000290
C    17.13999939  12.34000015  49.72999954
C    17.94999886  11.75000000  48.77999878
C    19.34000015  11.69999981  49.02000046
C    20.31999969  11.26000023  48.08000183
C    21.68000031  11.18999958  48.36999893
C    22.15999985  11.46999931  49.65999985
C    21.25000000  11.96000004  50.61000061
C    19.88000107  12.07999992  50.34000015
C    15.67000008  12.56000042  49.62999725
C    15.11000061  13.12999916  50.79999924
C    13.73999977  13.42000008  50.93000031
C    23.65999985  11.46999931  49.95999908
H    23.93209267  11.90255737  50.92278671
H    19.45000076  12.94999981  52.18999863
H    17.45000076  11.28000069  47.94000244
H    19.97999954  10.82999992  47.14000320
H    22.29000092  10.72999954  47.58999634
H    21.61000061  12.25000000  51.59999847
H    13.35000038  13.60999966  51.91999817
H    24.04000092  10.44000053  50.00999832
H    24.17000008  11.97999954  49.13999939
S    12.23000050  12.44999981  47.36999893
C     9.64999962  12.88000011  48.15000153
C    10.97000027  12.98999977  48.44999695
C    11.49000072  13.47000027  49.68999863
C    10.57999992  13.89000034  50.66999817
C     9.23999977  13.92000008  50.40999985
C     8.34000015  14.46000004  51.32999802
C     7.03000021  14.63999939  50.94999695
C     6.56000042  14.32000065  49.64000320
C     7.44999981  13.75000000  48.69999695
C     8.78000069  13.48000050  49.09999847
C    12.93000031  13.35999966  49.77000427
C    13.48000050  12.81999969  48.54000092
C    14.80999947  12.31999969  48.50999832
C     5.14999962  14.72000027  49.20999908
H     4.83471107  14.12608337  48.35211945
H     9.30999947  12.44999981  47.22000122
H    10.93000031  14.35999966  51.59000015
H     8.73999977  14.92000008  52.22999954
H     6.38999987  15.07999992  51.70999908
H     7.07000017  13.55999947  47.70000076
H    15.18000031  11.87999916  47.58999634
H     4.99000025  15.78999996  49.02000046
H     4.38000011  14.61999989  49.98000336
