96

S    12.05000019  16.75000000  44.09999847
C     9.35999966  17.35999870  44.93999863
C    10.59999943  16.77999878  45.20000076
C    11.03999996  16.40999985  46.50000000
C    10.11000061  16.36999893  47.43999863
C     8.78000069  16.77000046  47.22000122
C     7.81000042  16.70999908  48.26000214
C     6.53999996  17.11000061  47.95999908
C     6.19999981  17.73999977  46.73999786
C     7.11999989  17.93000031  45.75000000
C     8.45000076  17.38999939  45.94999695
C    12.44999981  16.34000015  46.65000153
C    13.17999935  16.57999992  45.44000244
C    14.59000015  16.34000015  45.37000275
C     4.71000004  17.95999908  46.47999573
H     4.33706284  17.47006226  45.58056259
H     9.11999989  17.85000038  44.00000000
H    10.38000011  16.15999985  48.47000122
H     8.14999962  16.28999901  49.20000076
H     5.73000002  16.86000061  48.63999939
H     6.84999990  18.34000015  44.77000427
H    15.05000019  16.21999931  44.38999939
H     4.05000019  17.64999962  47.29999924
H     4.50000000  19.02000046  46.29000092
S    15.64000034  15.17000008  49.02000046
C    18.27999878  14.78999996  48.27000046
C    17.00000000  15.21000004  47.94000244
C    16.68000031  15.80999947  46.68000031
C    17.67000008  15.88999939  45.73999786
C    19.02000046  15.57999992  46.04000092
C    20.10000038  15.72000027  45.08999634
C    21.40000153  15.34999943  45.44000244
C    21.67000008  14.75999928  46.70999908
C    20.66999817  14.46000004  47.54000092
C    19.31999969  14.84000015  47.27000427
C    15.26000023  15.97000027  46.49000168
C    14.52000046  15.70000076  47.69000244
C    13.17000008  15.92000008  47.80000305
C    23.06999969  14.37000084  47.11999893
H    23.39019012  14.80662155  48.06601334
H    18.45000076  14.39000034  49.26000214
H    17.48999977  16.13999939  44.69999695
H    19.86999893  16.18999863  44.13000107
H    22.20000076  15.44000053  44.71000290
H    20.89999962  14.09999943  48.54000092
H    12.65999985  15.65000057  48.70999908
H    23.72999954  14.70000076  46.30000305
H    23.11000061  13.27999973  47.09999847
S    15.90000057  12.77999973  52.21000290
C    18.53000069  12.15000057  51.59000015
C    17.23999977  12.11999989  51.23000336
C    16.80999947  11.75000000  49.95999908
C    17.71999931  11.39000034  48.99000168
C    19.11999893  11.39999962  49.31999969
C    20.13000107  11.05999947  48.37999725
C    21.40000153  10.81999969  48.72000122
C    21.78999901  11.14999962  50.01999664
C    20.88999939  11.61999893  50.93999863
C    19.51000023  11.65999985  50.66999817
C    15.32999992  11.98999977  49.80999756
C    14.73000050  12.46999931  51.00999832
C    13.40999985  12.71000004  51.13999939
C    23.23999786  10.72000027  50.51000214
H    23.53722382  11.22458935  51.42932129
H    18.90999985  12.51999950  52.54000092
H    17.47999954  11.26000023  47.94000244
H    19.75000000  10.75000000  47.39999771
H    22.18000031  10.46000004  48.04999924
H    21.12999916  11.97000027  51.93999863
H    12.89999962  13.17999935  51.97999954
H    23.15000153   9.64999962  50.75000000
H    24.01000023  10.82999992  49.73999786
S    12.10999966  12.05999947  47.39999771
C     9.44000053  12.56000042  48.06999969
C    10.76000023  12.63000011  48.40999985
C    11.18999958  12.89999962  49.73999786
C    10.29000092  13.27000046  50.65000153
C     8.97000027  13.22999954  50.34000015
C     8.03999996  13.83999920  51.18000031
C     6.71999979  14.06000042  50.89000320
C     6.21000004  13.63000011  49.65000153
C     7.11000013  13.17000008  48.75999832
C     8.52000046  12.97000027  49.01000214
C    12.61999989  12.56999969  49.95999908
C    13.20000076  11.97000027  48.80000305
C    14.57999992  11.69999981  48.69999695
C     4.85000038  13.94000053  49.26000214
H     4.65173626  13.55081558  48.26134109
H     9.06999969  12.20000076  47.11000061
H    10.60999966  13.67000008  51.60999680
H     8.38999939  14.25000000  52.12999725
H     6.09000015  14.65000057  51.55000305
H     6.80000019  12.94999981  47.74000168
H    15.07999992  11.17000008  47.90000153
H     4.59999990  15.01000023  49.22999954
H     4.09000015  13.50999928  49.93000031
