96

S    12.27000046  16.31999969  44.06000137
C     9.52999973  16.87999916  44.75999832
C    10.76000023  16.28000069  45.07999802
C    11.09000015  15.98000050  46.39999771
C    10.13000011  16.02000046  47.41000366
C     8.80000019  16.42000008  47.08000183
C     7.73999977  16.21999931  47.97999954
C     6.44999981  16.53000069  47.65999603
C     6.15999985  17.22999954  46.39999771
C     7.11000013  17.30999947  45.50000000
C     8.46000004  16.84000015  45.68999863
C    12.56000042  15.90999985  46.59000015
C    13.30000019  16.10999870  45.41999817
C    14.68999958  16.13000107  45.40000153
C     4.69000006  17.64999962  46.07999802
H     4.32559299  17.09223557  45.21732330
H     9.46000004  17.36999893  43.80000305
H    10.31000042  15.78999996  48.46000290
H     7.86000013  15.72999954  48.94000244
H     5.65000010  16.18999863  48.29999924
H     6.88000011  17.53999901  44.45999908
H    15.31000042  16.14999962  44.50000000
H     4.02999973  17.64000130  46.95999908
H     4.75000000  18.68999863  45.75000000
S    15.77999973  15.14999962  49.13999939
C    18.51000023  14.96000099  48.37999725
C    17.25000000  15.34000015  48.08000183
C    16.86000061  15.77000046  46.73999786
C    17.79999924  15.50000000  45.73999786
C    19.18000031  15.08999920  46.04999924
C    20.15999985  14.93999958  45.06000137
C    21.45000076  14.55999947  45.38999939
C    21.83000183  14.39000034  46.73999786
C    20.84000015  14.40999985  47.72999573
C    19.55000114  14.84000015  47.42000198
C    15.46000004  15.98000050  46.56999969
C    14.75999928  15.75000000  47.81000137
C    13.35000038  15.69000053  47.81000137
C    23.25000000  14.09000015  47.11999893
H    23.51382637  14.46375275  48.10934448
H    18.78000069  14.68000031  49.40000153
H    17.48999977  15.67999935  44.71000290
H    19.93999863  15.26999950  44.05000305
H    22.26000023  14.50000000  44.65999985
H    21.14999962  14.06999969  48.70999908
H    12.88000011  15.31000042  48.69999695
H    23.90999985  14.47000027  46.32999802
H    23.35000038  13.00000000  47.18999863
S    12.00000000  16.90999985  50.81999969
C     9.34000015  17.20999908  51.59000015
C    10.65000057  16.75000000  51.84000015
C    11.00999928  16.29999924  53.13000107
C    10.03999901  16.05999947  54.09000015
C     8.78000069  16.52000046  53.80000305
C     7.78999996  16.46999931  54.78000259
C     6.51999998  16.88999939  54.68000031
C     6.10000038  17.52000046  53.47000122
C     7.02000046  17.63000107  52.41000366
C     8.38000011  17.11000061  52.61000061
C    12.48999977  16.34000015  53.34000015
C    13.17000008  16.72000122  52.12999725
C    14.55000019  16.79000092  52.00000000
C     4.69000006  17.95999908  53.22000122
H     4.23517227  17.27414894  52.50527191
H     9.04999924  17.56000137  50.61000061
H    10.32999992  15.77000046  55.10000229
H     8.15999985  15.98000050  55.68000031
H     5.88999987  16.79999924  55.56999969
H     6.77999973  18.15000153  51.47999573
H    15.14999962  16.98999977  51.11000061
H     4.05000019  18.04000092  54.10999680
H     4.67000008  18.96999931  52.78999710
S    15.70000076  15.80999947  55.76000214
C    18.20999908  15.40999985  54.94999695
C    17.02999878  15.88999939  54.62999725
C    16.69000053  16.27000046  53.26000214
C    17.71999931  16.36000061  52.34000397
C    19.01000023  15.86999989  52.72999573
C    20.06000137  15.88000107  51.79000092
C    21.28999901  15.31000042  52.08000183
C    21.54999924  14.91000080  53.40000153
C    20.55000114  14.75999928  54.31000137
C    19.27999878  15.22999954  54.02000046
C    15.25000000  16.45000076  53.16999817
C    14.60999966  16.13999939  54.38999939
C    13.26000023  16.02000046  54.48999786
C    22.90999985  14.44000053  53.75000000
H    22.99013710  14.57841873  54.82820129
H    18.34000015  15.01999950  55.96000290
H    17.53999901  16.72000122  51.32999802
H    19.82999992  16.28000069  50.80999756
H    22.09000015  15.27999973  51.33999634
H    20.71000099  14.37999916  55.31000137
H    12.81000042  15.54999924  55.35999680
H    23.62999916  15.18000031  53.34999847
H    23.12000084  13.40999985  53.47000122
