96

S    12.56999969  16.70999908  43.97999573
C     9.86999989  17.11000061  44.69999695
C    11.13000011  16.67000008  45.06000137
C    11.39999962  16.35000038  46.42000198
C    10.47000027  16.46000099  47.41000366
C     9.09000015  16.84000015  47.08000183
C     8.01999950  16.79999924  48.00000000
C     6.76999998  17.28999901  47.56999969
C     6.51999998  17.68000031  46.20999908
C     7.59999990  17.80999947  45.28999710
C     8.89999962  17.35000038  45.70999908
C    12.86999893  16.13999939  46.59000015
C    13.60999966  16.32999992  45.37000275
C    14.98999977  16.36000061  45.28999710
C     5.13000011  18.11000061  45.76000214
H     4.78123903  17.50137711  44.92570877
H     9.53999996  17.23999977  43.67000198
H    10.65999985  16.07999992  48.40999985
H     8.05999947  16.39999962  49.01000214
H     6.00000000  17.14999962  48.31999969
H     7.46999979  18.01000023  44.22999954
H    15.50000000  16.82999992  44.45000076
H     4.48000002  18.01000023  46.63000107
H     5.26000023  19.15999985  45.45000076
S    15.95999908  15.53999996  49.00000000
C    18.65999985  15.26000023  48.33000183
C    17.40999985  15.64000034  48.01000214
C    17.09000015  16.00000000  46.70000076
C    18.02999878  16.13999939  45.66999817
C    19.34999847  15.77999973  46.06999969
C    20.36999893  15.77000046  45.07999802
C    21.68000031  15.32999992  45.34999847
C    21.97999954  14.96999931  46.72999954
C    21.00000000  14.89999962  47.68000031
C    19.68000031  15.31999969  47.36999893
C    15.65000057  16.04999924  46.44000244
C    14.91000080  15.85000038  47.64999771
C    13.60000038  15.93000031  47.70999908
C    23.38000107  14.73999977  47.11000061
H    23.50162697  14.81869984  48.19033051
H    18.89999962  14.78000069  49.27999878
H    17.75000000  16.44000053  44.65999985
H    20.20000076  16.28999901  44.13999939
H    22.43000031  15.65000057  44.62999725
H    21.21000099  14.50000000  48.67000198
H    13.10999966  15.84000015  48.68000031
H    24.09000015  15.31999969  46.51000214
H    23.67000198  13.69999981  46.90000153
S    16.11999893  13.15999985  52.11999893
C    18.79999924  12.61999989  51.50000000
C    17.43999863  12.57999992  51.16000366
C    16.98999977  12.15000057  49.86999893
C    17.97000122  11.68000031  49.01000214
C    19.38999939  11.69999981  49.22000122
C    20.38999939  11.31000042  48.34000015
C    21.71999931  11.30000019  48.64999771
C    22.01000023  11.57999992  50.00999832
C    21.09000015  12.09000015  50.86999893
C    19.75000000  12.11999989  50.56999969
C    15.57000065  12.42000008  49.65000153
C    14.91000080  12.88000011  50.84000015
C    13.63000011  13.30999947  50.86000061
C    23.42000008  11.28999901  50.50000000
H    23.54891968  11.56932640  51.54568481
H    19.13999939  13.12000084  52.39999771
H    17.63000107  11.44000053  48.00000000
H    20.10000038  10.80999947  47.41000366
H    22.43000031  10.92000008  47.90999985
H    21.35999870  12.31999969  51.90000153
H    13.27999973  13.78000069  51.77000046
H    23.64000130  10.21000004  50.45000076
H    24.21999931  11.78999996  49.93000031
S    12.11999989  12.35999966  47.27000427
C     9.50000000  12.86000061  48.13000107
C    10.86999989  12.86000061  48.34000015
C    11.38000011  13.17999935  49.62999725
C    10.52999973  13.66000080  50.58000183
C     9.11999989  13.68000031  50.37000275
C     8.21000004  14.23999977  51.35000229
C     6.86999989  14.44000053  51.04000092
C     6.34000015  14.02999973  49.75999832
C     7.18999958  13.60000038  48.80000305
C     8.57999992  13.35999966  49.10999680
C    12.79000092  13.03999996  49.81999969
C    13.35000038  12.51999950  48.61000061
C    14.75000000  12.27000046  48.47999954
C     4.85000038  14.04000092  49.48999786
H     4.70785284  14.06842995  48.40967941
H     9.09000015  12.41000080  47.23999786
H    10.93999958  13.86000061  51.56000137
H     8.64000034  14.75999928  52.19999695
H     6.21999979  14.85999966  51.81000137
H     6.84999990  13.15999985  47.87000275
H    15.14000034  11.94000053  47.51999664
H     4.40000010  14.94999981  49.89999771
H     4.51999998  13.12000084  49.99000168
