96

S    12.30000019  16.90000153  44.15000153
C     9.64999962  17.29999924  44.99000168
C    10.90999985  16.75000000  45.25000000
C    11.26000023  16.22999954  46.53999710
C    10.21000004  16.09000015  47.43999863
C     8.89999962  16.60000038  47.22000122
C     7.88000011  16.46999931  48.20999908
C     6.61000013  16.97000122  47.94000244
C     6.30000019  17.48999977  46.63000107
C     7.27999973  17.60000038  45.68000031
C     8.63000011  17.26000023  45.96000290
C    12.67000008  16.14999962  46.65999985
C    13.45000076  16.39000130  45.51000214
C    14.85000038  16.28999901  45.40000153
C     4.90999985  17.95999908  46.36000061
H     4.41762590  17.44590378  45.53454590
H     9.40999985  17.68000031  44.00000000
H    10.52000046  15.54999924  48.34000015
H     8.01000023  16.13999939  49.23999786
H     5.84000015  16.90000153  48.69999695
H     7.17000008  18.02999878  44.68999863
H    15.39000034  16.54000092  44.48999786
H     4.28000021  17.71999931  47.22999954
H     4.98000002  19.04999924  46.19999695
S    15.82999992  15.22999954  49.10999680
C    18.53000069  14.92000008  48.50000000
C    17.28000069  15.39000034  48.15000153
C    16.98999977  15.75000000  46.79000092
C    18.01000023  15.76000023  45.90999985
C    19.29000092  15.54999924  46.36000061
C    20.35000038  15.44000053  45.40999985
C    21.61000061  14.91000080  45.70000076
C    21.94999886  14.60999966  47.02999878
C    20.95999908  14.56999969  47.95999908
C    19.61000061  15.03999901  47.60000229
C    15.57999992  15.90999985  46.56000137
C    14.81999969  15.60999966  47.74000168
C    13.42000008  15.78999996  47.77999878
C    23.22999954  14.07999992  47.49000168
H    23.50694466  14.66158390  48.36929703
H    18.70000076  14.32000065  49.38999939
H    17.73999977  15.80000019  44.86000061
H    19.98999977  15.52000046  44.38000107
H    22.34999847  14.63000107  44.94999695
H    21.07999992  14.15999985  48.95999908
H    12.94999981  15.67000008  48.75000000
H    23.90999985  14.22000027  46.65000153
H    23.15999985  13.01000023  47.74000168
S    11.76000023  16.87999916  50.91999817
C     9.13000011  16.95999908  51.76000214
C    10.40999985  16.63999939  52.08000183
C    10.80000019  16.22999954  53.34999847
C     9.80000019  16.14999962  54.36000061
C     8.47999954  16.46000099  54.02999878
C     7.44999981  16.46000099  54.94999695
C     6.15999985  17.00000000  54.64000320
C     5.86000013  17.47999954  53.34000015
C     6.89000034  17.42000008  52.44999695
C     8.14000034  16.86000061  52.67000198
C    12.27000046  16.18000031  53.46000290
C    12.93000031  16.46000099  52.25999832
C    14.34000015  16.52000046  52.18000031
C     4.35999966  17.85000038  52.95000076
H     3.99715137  17.26386070  52.10567856
H     8.90999985  17.54999924  50.87999725
H     9.96000004  15.93999958  55.41999817
H     7.78999996  16.31000137  55.97000122
H     5.40000010  17.13999939  55.40000153
H     6.71999979  17.95999908  51.52000046
H    14.86999989  16.51000023  51.23000336
H     3.79999995  17.79999924  53.88999939
H     4.53000021  18.89999962  52.67000198
S    15.43000031  15.69000053  55.84999847
C    17.97000122  15.06999969  55.13999939
C    16.76000023  15.44000053  54.79000092
C    16.45000076  15.85000038  53.43000031
C    17.43000031  15.95999908  52.47000122
C    18.68999863  15.38000011  52.84000015
C    19.67000008  15.55999947  51.88000107
C    20.97999954  15.19999981  52.11000061
C    21.25999832  14.63999939  53.43999863
C    20.30999947  14.73999977  54.43999863
C    18.98999977  14.94999981  54.15999985
C    15.06999969  16.20000076  53.31999969
C    14.40000057  16.13000107  54.52000046
C    13.02999973  16.02000046  54.56999969
C    22.69000053  14.35999966  53.92000198
H    23.00125885  15.12004948  54.63661957
H    18.22999954  14.80000019  56.17000198
H    17.23999977  16.29999924  51.45000076
H    19.52999878  16.18000031  51.00000000
H    21.80000114  15.60999966  51.53999710
H    20.62999916  14.65000057  55.47000122
H    12.51000023  15.59999943  55.43000031
H    23.25000000  14.27000046  52.98999786
H    22.70000076  13.34000015  54.31999969
