96

S    12.15000057  16.84000015  44.23999786
C     9.52000046  17.46000099  45.05000305
C    10.78999996  17.01000023  45.41999817
C    11.13999939  16.55999947  46.65999985
C    10.18000031  16.40999985  47.56999969
C     8.82999992  16.80999947  47.31999969
C     7.90999985  16.90000153  48.36999893
C     6.65999985  17.38999939  48.04999924
C     6.23000050  17.80999947  46.72999954
C     7.21000004  17.86000061  45.75000000
C     8.51000023  17.36999893  46.02000427
C    12.56999969  16.34000015  46.77000046
C    13.30999947  16.39999962  45.52000046
C    14.68999958  16.10999870  45.45999908
C     4.82999992  18.31999969  46.45999908
H     4.48693085  17.79824829  45.56658936
H     9.27999973  17.86999893  44.06999969
H    10.44000053  16.06999969  48.56999969
H     8.15999985  16.75000000  49.41999817
H     5.89999962  17.47999954  48.82999802
H     7.13999987  18.15000153  44.71000290
H    15.26999950  16.13999939  44.54999924
H     4.18000031  18.25000000  47.34000397
H     4.88999987  19.40000153  46.31000137
S    15.72999954  15.84000015  49.26000214
C    18.38000107  15.24000072  48.62999725
C    17.14999962  15.62000084  48.27000046
C    16.81999969  15.80000019  46.86000061
C    17.82999992  15.92000008  45.91999817
C    19.13999939  15.60999966  46.31000137
C    20.13999939  15.59000015  45.34000015
C    21.45000076  15.19999981  45.70999908
C    21.77000046  14.73000050  47.01000214
C    20.75000000  14.67000008  47.95999908
C    19.43000031  15.18000031  47.67000198
C    15.38000011  15.90000057  46.65000153
C    14.67000008  15.95999908  47.88000107
C    13.30000019  16.14999962  47.90999985
C    23.11000061  14.11999893  47.25000000
H    23.49500847  14.47649002  48.20539474
H    18.60999870  15.10000038  49.68000031
H    17.56000137  15.98999977  44.86999893
H    19.79999924  15.60999966  44.29999924
H    22.18000031  15.18000031  44.91000366
H    20.89999962  14.11000061  48.87000275
H    12.74000072  16.10000038  48.83999634
H    23.65999985  14.40000057  46.35000229
H    23.09000015  13.02000046  47.18999863
S    12.10000038  17.32999992  51.13999939
C     9.55000019  17.89999962  51.88000107
C    10.77000046  17.36999893  52.23999786
C    11.03000069  16.70999908  53.52000427
C     9.98999977  16.51000023  54.38000107
C     8.67999935  16.95999908  53.96999741
C     7.63999987  16.68000031  54.85000229
C     6.32999992  16.90999985  54.47000122
C     6.02999973  17.63000107  53.29000092
C     7.04999971  18.02000046  52.43000031
C     8.42000008  17.64999962  52.75000000
C    12.41000080  16.40999985  53.60000229
C    13.15000057  16.84999847  52.43999863
C    14.52999973  16.84000015  52.41000366
C     4.71000004  18.17000008  53.06000137
H     4.28547049  17.66891670  52.19006348
H     9.35000038  18.38999939  50.93000031
H    10.18000031  16.05999947  55.34999847
H     7.82999992  16.10000038  55.75000000
H     5.59000015  16.62999916  55.22999573
H     6.74000025  18.71000099  51.65999985
H    15.05000019  17.13000107  51.50000000
H     4.02999973  18.22999954  53.92000198
H     4.67999983  19.20999908  52.74000168
S    15.57000065  15.80999947  56.07999802
C    18.22000122  15.51000023  55.40000153
C    16.98999977  15.92000008  55.01999664
C    16.69000053  16.39999962  53.69999695
C    17.77000046  16.61000061  52.80000305
C    19.02000046  16.05999947  53.13999939
C    20.06999969  16.03999901  52.18999863
C    21.27000046  15.43000031  52.48000336
C    21.53000069  15.06999969  53.80000305
C    20.55000114  14.98999977  54.71000290
C    19.26000023  15.51000023  54.43000031
C    15.27999973  16.54000092  53.59000397
C    14.53999996  16.22999954  54.75000000
C    13.17000008  16.09000015  54.73999786
C    22.85000038  14.52999973  54.20999908
H    23.28067398  15.00303555  55.09252930
H    18.39999962  14.96000099  56.31999969
H    17.61999893  16.94000053  51.77999878
H    19.86999893  16.57999992  51.26999664
H    22.13999939  15.39999962  51.81999969
H    20.65999985  14.60000038  55.72000122
H    12.65999985  15.77000046  55.65000153
H    23.57999992  14.52999973  53.39000320
H    22.67000008  13.48999977  54.51000214
