96

S    12.00000000  16.93000031  44.05000305
C     9.38000011  17.26000023  44.85000229
C    10.62999916  16.87000084  45.14999771
C    11.00999928  16.42000008  46.49000168
C    10.03999901  16.29999924  47.50999832
C     8.71000004  16.56999969  47.12999725
C     7.64999962  16.62999916  48.18000031
C     6.39999962  17.18000031  47.90000153
C     6.01999998  17.47999954  46.52000046
C     6.98000002  17.45000076  45.52000046
C     8.34999943  17.05999947  45.79000092
C    12.39999962  16.13999939  46.53999710
C    13.09000015  16.43000031  45.33000183
C    14.42000008  16.40999985  45.31000137
C     4.53999996  17.89999962  46.13999939
H     4.18034267  17.21004295  45.37664795
H     9.23999977  17.76000023  43.88999939
H    10.34000015  16.18999863  48.54000092
H     8.05000019  16.31999969  49.13999939
H     5.72000027  17.12000084  48.74000168
H     6.84999990  17.82999992  44.51000214
H    14.96000099  16.65999985  44.40000153
H     3.96000004  17.85000038  47.06999969
H     4.69999981  18.92000008  45.75000000
S    15.69000053  15.38000011  48.95000076
C    18.20000076  15.01999950  48.23999786
C    16.97999954  15.43000031  47.88000107
C    16.64999962  15.77999973  46.52000046
C    17.63000107  15.93000031  45.54000092
C    18.95000076  15.55999947  45.86000061
C    20.02000046  15.72999954  44.93999863
C    21.28000069  15.43000031  45.33000183
C    21.56999969  14.92000008  46.59000015
C    20.61000061  14.78000069  47.57999802
C    19.25000000  15.11999989  47.25999832
C    15.18000031  16.04999924  46.42000198
C    14.48999977  15.90000057  47.64999771
C    13.09999943  15.93000031  47.72999573
C    23.05999947  14.75999928  47.00000000
H    23.32162857  15.09047794  48.00520325
H    18.38999939  14.37000084  49.09000015
H    17.43999863  16.54000092  44.65999985
H    19.71999931  16.06999969  43.95000076
H    22.13999939  15.47999954  44.66999817
H    20.93000031  14.44000053  48.55999756
H    12.51999950  15.88000107  48.64999771
H    23.69999886  15.22999954  46.24000168
H    23.23999786  13.68000031  46.93000031
S    15.81999969  12.93000031  51.86999893
C    18.34000015  12.18999958  51.11000061
C    17.01000023  12.23999977  50.76000214
C    16.53000069  11.97999954  49.45999908
C    17.45000076  11.68000031  48.43000031
C    18.86000061  11.65999985  48.75000000
C    19.79999924  11.14999962  47.84999847
C    21.12999916  11.02000046  48.18000031
C    21.63999939  11.52999973  49.38000107
C    20.71000099  11.87999916  50.33000183
C    19.32999992  11.90999985  50.10000229
C    15.11000061  12.25999928  49.40000153
C    14.56999969  12.84999943  50.61000061
C    13.22999954  13.27999973  50.68000031
C    23.01000214  11.14999962  49.85000229
H    23.31078339  11.42929745  50.85976791
H    18.63000107  12.46000099  52.11999893
H    17.17000008  11.42000008  47.41000366
H    19.40000153  10.76000023  46.91999817
H    21.68999863  10.39999962  47.49000168
H    21.01000023  12.05999947  51.36000061
H    12.61000061  13.50999928  51.55000305
H    22.98999977  10.06000042  49.78000259
H    23.77000046  11.52999973  49.15000153
S    11.69999981  12.36999989  46.98999786
C     9.11000061  12.76999950  47.90999985
C    10.42000008  12.86999893  48.11999893
C    10.98999977  13.21000004  49.40000153
C    10.11000061  13.50999928  50.40999985
C     8.73000050  13.68000031  50.12000275
C     7.85000038  14.14999962  51.11000061
C     6.48999977  14.23999977  50.87999725
C     5.93999958  13.78999901  49.62999725
C     6.77999973  13.35000038  48.62999725
C     8.17000008  13.28999996  48.87000275
C    12.41000080  13.10999966  49.50000000
C    12.93000031  12.48999977  48.33000183
C    14.29999924  12.15000057  48.22999954
C     4.44000006  13.82999992  49.36999893
H     4.14743519  13.35458183  48.43379211
H     8.82000065  12.28000069  46.98999786
H    10.38000011  13.52000046  51.45999908
H     8.34000015  14.52000046  52.01000214
H     5.82999992  14.84000015  51.50000000
H     6.38999987  12.97000027  47.70000076
H    14.59000015  11.80999947  47.23999786
H     4.09000015  14.86999989  49.45999908
H     3.84999990  13.40000057  50.19000244
