96

S    12.10999966  17.02000046  44.19000244
C     9.46000004  17.19000053  44.98000336
C    10.72000027  16.86000061  45.28999710
C    11.03000069  16.46999931  46.63000107
C    10.03000069  16.31000137  47.64999771
C     8.64000034  16.61999893  47.28000259
C     7.57999992  16.65999985  48.23999786
C     6.34999990  17.14999962  47.81999969
C     6.11000013  17.65999985  46.47999573
C     7.11000013  17.60000038  45.59999847
C     8.38999939  17.10000038  45.93000031
C    12.46999931  16.35000038  46.75000000
C    13.15000057  16.60000038  45.52999878
C    14.53999996  16.39000130  45.43000031
C     4.78999996  18.30999947  46.13999939
H     4.41878033  17.84597588  45.22622681
H     9.40999985  17.70000076  44.02000046
H    10.29000092  16.32999992  48.70999908
H     7.67000008  16.29999924  49.26000214
H     5.66999960  17.43999863  48.61000061
H     7.00999975  17.98999977  44.58000183
H    15.05000019  16.62999916  44.50000000
H     4.02999973  18.12999916  46.90000153
H     5.00000000  19.34999847  45.87999725
S    15.72000027  15.67000008  49.15000153
C    18.27999878  14.65000057  48.46000290
C    17.10000038  15.34999943  48.09000015
C    16.69000053  15.60999966  46.70999908
C    17.65999985  15.54999924  45.80999756
C    18.96999931  15.03000069  46.11999893
C    20.03999901  15.11000061  45.12000275
C    21.28000069  14.75000000  45.52999878
C    21.54000092  14.26000023  46.84000015
C    20.52000046  14.01000023  47.72999573
C    19.25000000  14.48999977  47.43000031
C    15.29000092  16.00000000  46.55000305
C    14.61999989  15.81999969  47.74000168
C    13.27000046  15.88999939  47.87000275
C    22.93000031  13.96000004  47.29000092
H    23.30363655  14.72842216  47.96677399
H    18.47999954  14.32000065  49.47999954
H    17.38000107  15.84000015  44.79999924
H    19.85000038  15.73999977  44.25000000
H    22.09000015  14.93000031  44.82999802
H    20.73999786  13.55999947  48.69999695
H    12.84999943  15.52000046  48.80000305
H    23.57000160  13.93000031  46.39999771
H    23.08000183  13.02000046  47.83000183
S    16.09000015  12.63000011  51.98999786
C    18.56999969  11.87999916  51.44000244
C    17.38000107  12.10999966  50.97000122
C    16.95000076  11.77999973  49.61999893
C    17.79999924  11.31000042  48.76999664
C    19.12999916  11.17000008  49.20000076
C    20.15999985  10.85000038  48.27999878
C    21.48999977  10.80000019  48.61999893
C    21.84000015  11.07999992  49.95999908
C    20.94000053  11.44000053  50.91999817
C    19.54000092  11.46000004  50.56000137
C    15.52999973  12.25000000  49.43000031
C    15.01000023  12.84999943  50.61999893
C    13.66000080  13.09999943  50.75000000
C    23.25000000  10.72000027  50.33000183
H    23.58422661  11.07511616  51.30482864
H    18.84000015  12.11999989  52.45999908
H    17.40999985  11.10000038  47.77000046
H    19.79999924  10.65999985  47.27000427
H    22.15999985  10.26999950  47.95000076
H    21.28000069  11.77999973  51.88999939
H    13.28999996  13.38999939  51.72999954
H    23.31000137   9.63000011  50.27000046
H    23.95000076  11.16000080  49.59999847
S    11.97999954  12.18999958  47.36000061
C     9.38000011  12.96000004  48.29999924
C    10.77000046  12.76000023  48.48999786
C    11.31999969  13.05999947  49.75999832
C    10.48999977  13.48000050  50.84000015
C     9.10000038  13.78000069  50.61000061
C     8.15999985  14.09999943  51.62000275
C     6.80999994  14.29999924  51.29000092
C     6.38000011  13.92000008  49.98000336
C     7.23000002  13.59000015  48.99000168
C     8.56000042  13.48999977  49.29000092
C    12.77999973  12.88000011  49.75000000
C    13.30000019  12.34000015  48.50000000
C    14.60000038  11.90999985  48.40999985
C     4.88000011  13.94000053  49.69999695
H     4.69458103  13.67613411  48.65879822
H     8.93999958  12.63000011  47.36000061
H    10.93999958  13.60999966  51.81999969
H     8.52000046  14.17000008  52.63999939
H     6.10000038  14.70000076  52.01000214
H     6.76999998  13.38000107  48.02999878
H    14.91000080  11.31999969  47.56000137
H     4.50000000  14.93999958  49.93999863
H     4.42000008  13.17000008  50.33000183
