96

S    12.06999969  17.22999954  44.13000107
C     9.36999989  17.38999939  44.84000397
C    10.65999985  17.00000000  45.15999603
C    11.03000069  16.47999954  46.46999741
C    10.06000042  16.38000107  47.41000366
C     8.73999977  16.77000046  47.14000320
C     7.67000008  16.70999908  48.02000046
C     6.39999962  17.15999985  47.81999969
C     6.05999994  17.54999924  46.49000168
C     7.04999971  17.67000008  45.52000046
C     8.39999962  17.22999954  45.79000092
C    12.48000050  16.34000015  46.60999680
C    13.15000057  16.72999954  45.40000153
C    14.56999969  16.67000008  45.31999969
C     4.61999989  17.87999916  46.24000168
H     4.40581226  17.46590233  45.25473785
H     9.26000023  17.92000008  43.89999771
H    10.19000053  16.10000038  48.46000290
H     7.82000017  16.20000076  48.96999741
H     5.63000011  17.05000114  48.57999802
H     6.91999960  18.09999847  44.52999878
H    15.10000038  16.81999969  44.38000107
H     4.03999996  17.38999939  47.02999878
H     4.51999998  18.96999931  46.19999695
S    15.62000084  15.60999966  48.93000031
C    18.34000015  15.42000008  48.34000015
C    17.05999947  15.71000004  47.93000031
C    16.76000023  16.05999947  46.55000305
C    17.81999969  16.04999924  45.59000015
C    19.10000038  15.65000057  46.03000259
C    20.17000008  15.67999935  45.20000076
C    21.40000153  15.31999969  45.47000122
C    21.57999992  14.67000008  46.76000214
C    20.59999847  14.55000019  47.69000244
C    19.31999969  15.21999931  47.34000397
C    15.31999969  16.23999977  46.38000107
C    14.63999939  15.90000057  47.55000305
C    13.25000000  15.93999958  47.68000031
C    22.89999962  14.18000031  47.29000092
H    23.34052658  14.89952660  47.98015976
H    18.40999985  15.06999969  49.36000061
H    17.70000076  16.31999969  44.54000092
H    20.00000000  16.04999924  44.19000244
H    22.19000053  15.52000046  44.75000000
H    20.86000061  14.14000034  48.66000366
H    12.89000034  15.53999996  48.61999893
H    23.55999947  14.06999969  46.42000198
H    22.63999939  13.20000076  47.70999908
S    15.95000076  13.17000008  51.90999985
C    18.48999977  12.38000011  51.23000336
C    17.19000053  12.50000000  50.87999725
C    16.72000122  12.06999969  49.62999725
C    17.64999962  11.64000034  48.75000000
C    18.97999954  11.49000072  49.05000305
C    19.84000015  10.78999996  48.20000076
C    21.07999992  10.50000000  48.55999756
C    21.61999893  11.05999947  49.75000000
C    20.81000137  11.61999893  50.68999863
C    19.42000008  11.77999973  50.40999985
C    15.32999992  12.41000080  49.45999908
C    14.73000050  12.86000061  50.61999893
C    13.40999985  13.23999977  50.70000076
C    23.11000061  10.93000031  49.95999908
H    23.43989754  11.24586010  50.94969559
H    18.75000000  12.68000031  52.23999786
H    17.13000107  11.09000015  47.97000122
H    19.51000023  10.55999947  47.18999863
H    21.64999962   9.86999989  47.87000275
H    21.18000031  11.95000076  51.65999985
H    13.10999966  13.89999962  51.51000214
H    23.29000092   9.86999989  49.73999786
H    23.72999954  11.42000008  49.19000244
S    12.05999947  12.18000031  47.09999847
C     9.42000008  12.69999981  47.90000153
C    10.72000027  12.69000053  48.15000153
C    11.18999958  13.09999943  49.45000076
C    10.29000092  13.48000050  50.44000244
C     8.89999962  13.47000027  50.14999771
C     7.97999954  13.85000038  51.14999771
C     6.67999983  13.85000038  50.84999847
C     6.24000025  13.50000000  49.52999878
C     7.09000015  13.10999966  48.55999756
C     8.47000027  13.17000008  48.83999634
C    12.63000011  12.93000031  49.61999893
C    13.22000027  12.50000000  48.36999893
C    14.65000057  12.23000050  48.29000092
C     4.78999996  13.85000038  49.15999985
H     4.37772703  13.34938335  48.28392029
H     9.11000061  12.25000000  46.95999908
H    10.57000065  13.52000046  51.50000000
H     8.27999973  14.37000084  52.05999756
H     5.88999987  14.37000084  51.38000107
H     6.71999979  12.61999989  47.65999603
H    15.06000042  11.76000023  47.41000366
H     4.71000004  14.93999958  49.03999710
H     4.17000008  13.60999966  50.02999878
