96

S    12.89000034  16.97000122  44.12000275
C    10.11000061  17.04000092  44.71000290
C    11.44000053  16.84000015  45.13000107
C    11.84000015  16.53000069  46.45999908
C    10.80999947  16.27000046  47.30999756
C     9.42000008  16.46000099  47.01000214
C     8.32999992  16.36000061  47.90999985
C     7.03999996  16.63999939  47.49000168
C     6.72999954  17.31999969  46.26999664
C     7.78999996  17.48999977  45.40999985
C     9.11000061  16.94000053  45.70000076
C    13.25000000  16.42000008  46.65000153
C    13.93000031  16.61999893  45.40000153
C    15.32999992  16.43000031  45.34000015
C     5.29999971  17.72999954  45.91999817
H     4.90685654  17.28681946  45.00505066
H     9.85999966  17.45000076  43.73000336
H    11.10999966  15.88000107  48.27999878
H     8.52000046  15.95999908  48.90999603
H     6.26999950  16.47999954  48.25000000
H     7.59000015  18.02999878  44.48999786
H    15.76000023  16.44000053  44.34000015
H     4.59000015  17.50000000  46.72000122
H     5.19000006  18.79999924  45.68999863
S    16.39000130  15.21999931  48.92000198
C    19.00000000  14.70000076  48.23999786
C    17.79000092  15.21999931  47.90000153
C    17.52000046  15.62999916  46.60999680
C    18.52000046  15.59000015  45.63000107
C    19.75000000  15.13000011  45.91999817
C    20.82999992  15.11000061  45.00999832
C    22.07999992  14.80000019  45.41999817
C    22.30999947  14.47999954  46.72999954
C    21.31999969  14.55999947  47.65999603
C    20.00999832  14.80999947  47.28000259
C    16.06999969  16.03999901  46.45000076
C    15.43000031  15.80999947  47.68000031
C    14.04999924  15.95000076  47.78999710
C    23.68000031  14.06000042  47.27000427
H    23.91902542  14.68291664  48.13194656
H    19.23999977  14.26000023  49.20000076
H    18.34000015  15.97000027  44.62999725
H    20.61000061  15.54999924  44.02999878
H    22.90999985  14.96999931  44.73999786
H    21.50000000  14.27999973  48.69999695
H    13.52000046  15.72999954  48.70999908
H    24.34000015  14.26000023  46.42000198
H    23.71000099  12.98999977  47.49000168
S    16.18000031  12.97999954  52.08000183
C    18.89000130  12.41000080  51.42000198
C    17.53999901  12.38999939  51.11999893
C    17.05999947  11.80999947  49.87999725
C    18.01000023  11.31000042  49.06000137
C    19.40999985  11.40999985  49.26000214
C    20.29000092  10.88000107  48.27000046
C    21.61999893  10.77999973  48.67000198
C    22.09000015  11.36000061  49.87999725
C    21.24000168  11.95000076  50.76000214
C    19.82999992  11.97000027  50.45999908
C    15.57999992  12.00000000  49.66999817
C    15.01000023  12.58999920  50.79999924
C    13.68000031  13.07000065  50.72999954
C    23.54999924  11.14999962  50.27000046
H    23.89827538  11.57083130  51.21324158
H    19.27000046  12.93000031  52.29999924
H    17.67000008  10.70000076  48.22999954
H    19.92000008  10.36999893  47.37999725
H    22.29999924  10.18000031  48.08000183
H    21.54999924  12.36999989  51.70999908
H    13.22999954  13.64999962  51.52999878
H    23.68000031  10.06000042  50.34000015
H    24.18999863  11.44000053  49.43000031
S    12.23999977  11.97000027  47.29999924
C     9.56999969  12.53000069  48.01000214
C    10.90999985  12.69999981  48.26000214
C    11.44999981  13.27000046  49.48999786
C    10.55999947  13.60999966  50.40999985
C     9.19000053  13.43999958  50.27000046
C     8.25000000  13.83999920  51.27999878
C     6.93000031  14.00000000  51.00999832
C     6.44000006  13.73000050  49.75000000
C     7.23999977  13.22999954  48.77999878
C     8.64999962  13.02999973  48.99000168
C    12.90999985  13.00000000  49.59999847
C    13.43999958  12.38000011  48.47000122
C    14.70000076  11.85999966  48.53000259
C     5.00000000  13.99000072  49.36000061
H     4.72452974  13.58738995  48.38525772
H     9.19999981  11.84999943  47.25000000
H    10.85000038  13.96000004  51.39999771
H     8.63000011  14.26000023  52.21000290
H     6.32000017  14.50000000  51.76000214
H     6.91999960  13.01000023  47.76000214
H    15.14000034  11.31999969  47.69000244
H     4.67999983  15.03999901  49.38000107
H     4.35999966  13.53000069  50.12000275
