96

S    12.68000031  16.32999992  43.86000061
C     9.94000053  16.73999977  44.50000000
C    11.23000050  16.28999901  44.87999725
C    11.56000042  16.21000099  46.26999664
C    10.60999966  16.44000053  47.29000092
C     9.35999966  16.79000092  46.91999817
C     8.32999992  16.95000076  47.94000244
C     7.05999947  17.46999931  47.64999771
C     6.74000025  17.76000023  46.31000137
C     7.75000000  17.63000107  45.34000015
C     8.98999977  17.00000000  45.52000046
C    12.96000004  16.18000031  46.44000244
C    13.71999931  16.28000069  45.27999878
C    15.17000008  16.44000053  45.34000015
C     5.36999989  18.20000076  45.90999985
H     4.87371874  17.56901360  45.17266846
H     9.78999996  17.28000069  43.56999969
H    10.75000000  16.23999977  48.34999847
H     8.65999985  16.47999954  48.86000061
H     6.30000019  17.47999954  48.43000031
H     7.36999989  17.94000053  44.38000107
H    15.76000023  16.53000069  44.43000031
H     4.78999996  18.06999969  46.84000015
H     5.38000011  19.27999878  45.68999863
S    16.15999985  15.76000023  49.16999817
C    18.93000031  15.26999950  48.40999985
C    17.63000107  15.73999977  48.13999939
C    17.23999977  16.07999992  46.76000214
C    18.22999954  15.93999958  45.77000046
C    19.55999947  15.62999916  46.13999939
C    20.52000046  15.44000053  45.13000107
C    21.76000214  14.89999962  45.44000244
C    22.10000038  14.47999954  46.70999908
C    21.21000099  14.67000008  47.74000168
C    19.96999931  15.34999943  47.43999863
C    15.82999992  16.23999977  46.56999969
C    15.05000019  16.04999924  47.75000000
C    13.61999989  16.11999893  47.64999771
C    23.48999977  14.02999973  47.09000015
H    23.78878212  14.54931164  48.00057220
H    19.11000061  14.60000038  49.25000000
H    17.93000031  15.73999977  44.73999786
H    20.35000038  15.75000000  44.09999847
H    22.53000069  15.03000069  44.68999863
H    21.38999939  14.30999947  48.75000000
H    12.98999977  15.98999977  48.53000259
H    24.28999901  14.25000000  46.37000275
H    23.54999924  12.94000053  47.21000290
S    11.71000004  17.14999962  50.72000122
C     9.06999969  17.56000137  51.55000305
C    10.31999969  17.05999947  51.81000137
C    10.75000000  16.79000092  53.13000107
C     9.86999989  16.93000031  54.19000244
C     8.56000042  17.47999954  53.99000168
C     7.53999996  17.50000000  54.98000336
C     6.21000004  17.82999992  54.73999786
C     5.80999947  18.22999954  53.40999985
C     6.80000019  18.30000114  52.36000061
C     8.14999962  17.89999962  52.63000107
C    12.22000027  16.75000000  53.27999878
C    12.90999985  17.01000023  52.06999969
C    14.29999924  16.95999908  51.98999786
C     4.38000011  18.53999901  53.18000031
H     4.00051069  18.16051102  52.23127747
H     8.78000069  17.81999969  50.54000092
H    10.19000053  16.47999954  55.13000107
H     7.76999998  17.02000046  55.93000031
H     5.55999994  17.82999992  55.61000061
H     6.52999973  18.42000008  51.31999969
H    14.78000069  17.06999969  51.02000427
H     3.88000011  18.12000084  54.06999969
H     4.28999996  19.63000107  53.13999939
S    15.40999985  15.80000019  55.68000031
C    18.01000023  15.53999996  54.98000336
C    16.79000092  15.95000076  54.64000320
C    16.44000053  16.34000015  53.31999969
C    17.48999977  16.35000038  52.42000198
C    18.77000046  15.97000027  52.72999573
C    19.88999939  15.98999977  51.81000137
C    21.11999893  15.52999973  52.15000153
C    21.32999802  15.06000042  53.41999817
C    20.30999947  15.00000000  54.29999924
C    19.04000092  15.44000053  53.99000168
C    14.98000050  16.61000061  53.11000061
C    14.28999996  16.31000137  54.33000183
C    12.89000034  16.47999954  54.48999786
C    22.79000092  14.89999962  53.87000275
H    23.03032112  15.18272972  54.89489746
H    18.04999924  15.11000061  55.97999954
H    17.20000076  16.72999954  51.45000076
H    19.59000015  16.25000000  50.79999924
H    22.03000069  15.67999935  51.56999969
H    20.58000183  14.92000008  55.34999847
H    12.38000011  16.26000023  55.41999817
H    23.32999992  15.52999973  53.15999985
H    23.03999901  13.86000061  53.61000061
