96

S    12.07999992  16.42000008  44.27000046
C     9.47000027  16.79000092  44.92000198
C    10.69000053  16.45000076  45.28999710
C    11.09000015  16.26000023  46.60999680
C    10.11999989  16.35000038  47.56000137
C     8.76999950  16.54000092  47.27000427
C     7.73999977  16.54999924  48.23999786
C     6.47000027  16.84999847  47.90000153
C     6.21999979  17.28000069  46.62000275
C     7.13000011  17.17000008  45.56999969
C     8.46000004  16.82999992  45.89000320
C    12.57999992  16.09000015  46.75000000
C    13.22999954  16.10000038  45.52000046
C    14.59000015  16.02000046  45.34000015
C     4.72000027  17.69000053  46.24000168
H     4.30449200  17.15270615  45.38749695
H     9.15000057  17.12000084  43.94000244
H    10.43000031  16.31999969  48.61000061
H     8.13000011  16.45000076  49.25000000
H     5.68000031  16.77000046  48.63999939
H     6.76000023  17.39999962  44.58000183
H    15.08999920  16.03999901  44.38000107
H     4.15999985  17.68000031  47.18999863
H     4.75000000  18.75000000  45.97000122
S    15.84000015  15.32999992  49.13999939
C    18.52000046  14.98000050  48.26000214
C    17.22999954  15.22999954  47.95999908
C    16.84000015  15.47999954  46.62000275
C    17.78000069  15.50000000  45.52999878
C    19.11999893  15.18000031  45.86999893
C    20.15000153  15.15999985  44.86999893
C    21.45000076  15.00000000  45.25000000
C    21.84000015  14.63000107  46.55000305
C    20.79999924  14.53999996  47.47000122
C    19.44000053  14.86999989  47.22999954
C    15.42000008  15.81999969  46.50000000
C    14.75000000  15.70000076  47.78999710
C    13.35999966  15.85000038  47.90999985
C    23.29999924  14.37000084  46.83000183
H    23.54491997  14.86664486  47.76886368
H    18.81000137  14.67000008  49.26000214
H    17.51000023  15.72000027  44.50000000
H    19.81999969  15.17000008  43.82999802
H    22.18000031  14.96000099  44.45000076
H    21.07000160  14.30999947  48.48999786
H    12.81000042  15.70000076  48.82999802
H    23.97000122  14.78000069  46.06999969
H    23.38999939  13.27999973  46.95000076
S    16.13000107  12.96000004  52.11000061
C    18.70000076  12.20000076  51.38999939
C    17.36999893  12.28999996  51.09000397
C    16.92000008  11.97999954  49.79999924
C    17.82999992  11.54999924  48.85000229
C    19.15999985  11.49000072  49.10999680
C    20.13999939  10.95999908  48.20000076
C    21.42999840  10.80999947  48.57999802
C    21.90000153  11.17000008  49.87999725
C    21.01000023  11.64999962  50.77999878
C    19.64999962  11.80999947  50.41999817
C    15.52999973  12.30000019  49.65000153
C    14.98999977  12.86999893  50.79999924
C    13.71000099  13.31999969  50.97999954
C    23.34000015  11.02000046  50.22999573
H    23.58682632  11.37261105  51.23141479
H    18.98999977  12.27000046  52.43999863
H    17.39999962  11.19999981  47.90999985
H    19.84000015  10.46000004  47.29000092
H    22.11999893  10.34999943  47.88000107
H    21.25999832  12.00000000  51.77999878
H    13.26000023  13.78999901  51.84000015
H    23.57000160   9.96000004  50.12000275
H    23.95000076  11.63000011  49.54999924
S    12.11999989  12.35000038  47.43999863
C     9.48000050  12.93000031  48.27999878
C    10.82999992  12.88000011  48.52000427
C    11.38000011  13.22000027  49.82999802
C    10.48999977  13.71999931  50.72999954
C     9.07999992  13.73000050  50.51000214
C     8.14999962  14.07999992  51.55000305
C     6.80000019  14.18000031  51.32999802
C     6.28000021  13.78999901  50.05000305
C     7.11000013  13.32999992  49.02999878
C     8.52999973  13.27999973  49.27000046
C    12.84000015  13.03999996  49.85000229
C    13.40000057  12.60000038  48.68000031
C    14.73999977  12.11999989  48.54000092
C     4.88000011  14.19000053  49.72000122
H     4.60006475  13.78483009  48.74759674
H     9.15000057  12.56000042  47.30999756
H    10.90000057  14.11999893  51.65000153
H     8.55000019  14.52000046  52.45999908
H     6.11999989  14.55999947  52.09000015
H     6.72999954  13.12999916  48.02999878
H    15.07999992  11.39999962  47.81000137
H     4.78999996  15.27999973  49.75000000
H     4.18000031  14.02999973  50.54999924
