96

S    12.51999950  17.01000023  44.15999985
C     9.84000015  17.46999931  44.68000031
C    11.10000038  17.20999908  45.17000198
C    11.28999901  16.81999969  46.56000137
C    10.11000061  16.65999985  47.39999771
C     8.88000011  17.00000000  46.93000031
C     7.77999973  16.90999985  47.80000305
C     6.52999973  17.34000015  47.38999939
C     6.39999962  17.90999985  46.10000229
C     7.40999985  17.85000038  45.13999939
C     8.69999981  17.43000031  45.56000137
C    12.77999973  16.70999908  46.84000015
C    13.48999977  16.73999977  45.65000153
C    14.92000008  16.64999962  45.61000061
C     5.05000019  18.37000084  45.65000153
H     4.56911850  17.63125420  45.00882339
H     9.68999958  17.77000046  43.64999771
H    10.14000034  16.21000099  48.39000320
H     7.99000025  16.61999893  48.81999969
H     5.69000006  17.25000000  48.08000183
H     7.09999990  18.00000000  44.10999680
H    15.50000000  16.56999969  44.68999863
H     4.44000006  18.47999954  46.56000137
H     5.13999987  19.34000015  45.13999939
S    15.85000038  15.70000076  49.36000061
C    18.55999947  15.36999893  48.70999908
C    17.28000069  15.62000084  48.27000046
C    17.04000092  16.06999969  46.93000031
C    18.01000023  16.10999870  45.98999786
C    19.36000061  15.76000023  46.30000305
C    20.34000015  15.67999935  45.33000183
C    21.59000015  15.18000031  45.65999985
C    21.84999847  14.80000019  46.97000122
C    20.92000008  14.85000038  47.95999908
C    19.61000061  15.36000061  47.68000031
C    15.60999966  16.40999985  46.81000137
C    14.88999939  16.28999901  48.02999878
C    13.47000027  16.39000130  48.04000092
C    23.31999969  14.44000053  47.29000092
H    23.57243156  14.80462551  48.28570557
H    18.72999954  15.00000000  49.72000122
H    17.68000031  16.31000137  44.97000122
H    20.15999985  15.85999966  44.27999878
H    22.39000130  15.06000042  44.93000031
H    21.07999992  14.45000076  48.95000076
H    12.90999985  16.20000076  48.95000076
H    23.94000053  14.98999977  46.58000183
H    23.45000076  13.36999989  47.08000183
S    16.13999939  13.10999966  52.18000031
C    18.75000000  12.27000046  51.45999908
C    17.45000076  12.53999901  51.05999756
C    16.98999977  12.13999939  49.75000000
C    17.87999916  11.69999981  48.81000137
C    19.25000000  11.46999931  49.18000031
C    20.20999908  10.93999958  48.26000214
C    21.47999954  10.72999954  48.53000259
C    21.91999817  11.06999969  49.85000229
C    21.02000046  11.38000011  50.80999756
C    19.65999985  11.75000000  50.56000137
C    15.54999924  12.27000046  49.64000320
C    14.94999981  12.84999943  50.81999969
C    13.68000031  13.22999954  50.96000290
C    23.36999893  10.90000057  50.30000305
H    23.51723289  11.07527828  51.36569595
H    19.09000015  12.35999966  52.48000336
H    17.67000008  11.69999981  47.75000000
H    19.88999939  10.88000107  47.22999954
H    22.20000076  10.47000027  47.76000214
H    21.37000084  11.47999954  51.84000015
H    13.34000015  13.67000008  51.90000153
H    23.64000130   9.89000034  49.95999908
H    24.00000000  11.44999981  49.59000015
S    12.13999939  12.48000050  47.37999725
C     9.52000046  13.04999924  48.11999893
C    10.84000015  12.96000004  48.47999954
C    11.36000061  13.40999985  49.75000000
C    10.52000046  13.86000061  50.72000122
C     9.17000008  13.85000038  50.35999680
C     8.23000050  14.23999977  51.36000061
C     6.90000010  14.52999973  51.04999924
C     6.42000008  14.28999996  49.75999832
C     7.27999973  13.82999992  48.75000000
C     8.67000008  13.56999969  49.06000137
C    12.76000023  13.10999966  49.82999802
C    13.31999969  12.53999901  48.66000366
C    14.63999939  12.06999969  48.57999802
C     4.97000027  14.45000076  49.40999985
H     4.78732872  13.97224331  48.44746017
H     9.21000004  12.76000023  47.11999893
H    10.80999947  14.22999954  51.70000076
H     8.61999989  14.59000015  52.30999756
H     6.30999994  14.84000015  51.90000153
H     6.97000027  13.59000015  47.74000168
H    15.00000000  11.61000061  47.65999603
H     4.72000027  15.50000000  49.20000076
H     4.38000011  14.07999992  50.26000214
