96

S    12.38999939  16.84999847  44.06999969
C     9.75000000  17.09000015  44.88999939
C    11.00000000  16.62999916  45.13999939
C    11.32999992  16.09000015  46.40999603
C    10.38000011  16.09000015  47.45999908
C     9.06000042  16.46999931  47.15999985
C     8.01000023  16.67000008  48.11999893
C     6.76000023  17.20999908  47.74000168
C     6.39999962  17.39999962  46.45000076
C     7.37999964  17.42000008  45.52000046
C     8.71000004  16.94000053  45.84999847
C    12.74000072  15.82999992  46.55000305
C    13.43999958  16.18000031  45.38000107
C    14.82999992  16.07999992  45.33000183
C     4.99000025  17.87999916  46.03000259
H     4.59229231  17.14139938  45.33401489
H     9.36999989  17.43000031  43.93000031
H    10.59999943  15.80000019  48.47999954
H     8.09000015  16.47999954  49.19000244
H     6.01999998  17.27000046  48.52000427
H     7.26999998  17.79999924  44.51000214
H    15.34999943  16.26000023  44.38999939
H     4.34999990  17.95999908  46.90999985
H     4.88999987  18.86999893  45.58000183
S    15.82999992  15.15999985  49.03999710
C    18.53999901  14.98999977  48.48999786
C    17.28999901  15.42000008  48.09000015
C    16.97999954  15.75000000  46.73999786
C    18.00000000  15.77999973  45.77999878
C    19.27999878  15.36000061  46.18999863
C    20.35000038  15.21000004  45.24000168
C    21.55999947  14.67000008  45.66999817
C    21.76000214  14.29999924  46.97000122
C    20.79000092  14.40999985  47.83000183
C    19.50000000  14.88999939  47.49000168
C    15.50000000  15.81999969  46.50000000
C    14.84000015  15.54999924  47.64999771
C    13.40999985  15.54999924  47.68000031
C    23.22000122  13.78000069  47.42000198
H    23.60827065  14.41273975  48.21811676
H    18.65999985  14.63999939  49.51000214
H    17.78000069  15.86999989  44.72000122
H    20.07999802  15.31000042  44.19000244
H    22.36999893  14.32000065  45.05000305
H    20.88000107  13.93000031  48.81000137
H    12.79000092  15.40999985  48.55999756
H    23.88999939  13.86999989  46.55000305
H    23.12000084  12.71999931  47.67000198
S    11.90999985  17.00000000  51.12999725
C     9.18000031  17.36999893  51.75000000
C    10.44999981  17.04000092  52.11000061
C    10.80999947  16.79000092  53.47000122
C     9.80000019  16.69000053  54.38000107
C     8.42000008  16.97999954  54.05000305
C     7.34000015  16.95000076  54.97000122
C     6.14000034  17.39999962  54.54000092
C     5.88999987  17.97000122  53.27999878
C     6.84000015  17.90999985  52.36000061
C     8.10999966  17.39999962  52.70000076
C    12.22000027  16.67000008  53.69999695
C    12.97000027  16.87999916  52.50999832
C    14.32999992  16.80999947  52.37999725
C     4.51999998  18.27000046  52.93000031
H     4.16645432  17.46911049  52.28062820
H     8.96000004  17.60000038  50.70999908
H    10.07999992  16.53000069  55.40999985
H     7.63999987  16.72999954  55.98999786
H     5.28999996  17.51000023  55.20999908
H     6.58999968  18.32999992  51.38999939
H    14.78000069  16.82999992  51.38999939
H     3.84000015  18.25000000  53.79000092
H     4.50000000  19.23999977  52.42000198
S    15.38000011  15.69000053  55.94999695
C    18.09999847  15.18000031  55.12000275
C    16.79000092  15.57000065  54.85000229
C    16.46999931  16.18999863  53.59000397
C    17.42000008  16.34000015  52.58999634
C    18.72999954  15.85999966  52.84999847
C    19.82999992  15.97000027  51.95999908
C    21.07999992  15.44999981  52.27000427
C    21.40000153  14.94999981  53.53000259
C    20.35000038  14.78999996  54.45000076
C    19.05999947  15.31999969  54.18000031
C    15.03999901  16.46000099  53.50999832
C    14.35999966  16.34000015  54.73999786
C    12.96000004  16.36999893  54.86999893
C    22.73999977  14.39000034  53.90999603
H    23.08227158  14.81593704  54.85314560
H    18.39999962  14.65000057  56.02000427
H    17.13999939  16.77000046  51.63000107
H    19.70000076  16.44000053  50.98999786
H    21.94999886  15.62000084  51.65000153
H    20.52999878  14.34000015  55.43000031
H    12.51999950  16.01000023  55.79000092
H    23.36000061  14.70999908  53.06000137
H    22.57999802  13.31999969  54.09999847
