96

S    12.10000038  16.87000084  44.05000305
C     9.47000027  17.28999901  44.94999695
C    10.73999977  16.69999886  45.18000031
C    11.05999947  16.10999870  46.42000198
C    10.14000034  16.03000069  47.39999771
C     8.80000019  16.56999969  47.18000031
C     7.73999977  16.43000031  48.13999939
C     6.48999977  16.79999924  47.70999908
C     6.15999985  17.53000069  46.52000046
C     7.16000032  17.69000053  45.61000061
C     8.45000076  17.23999977  45.90000153
C    12.51999950  16.03999901  46.56000137
C    13.20000076  16.38000107  45.35999680
C    14.55999947  16.46000099  45.21999741
C     4.73000002  17.98999977  46.11999893
H     4.32733917  17.35724831  45.32905579
H     9.31999969  17.86999893  44.05000305
H    10.44999981  15.57000065  48.33000183
H     7.92000008  15.85000038  49.03999710
H     5.61999989  16.52000046  48.29999924
H     6.91999960  18.17000008  44.65999985
H    15.03000069  16.72999954  44.27999878
H     4.17000008  17.82999992  47.04999924
H     4.69999981  19.05999947  45.89000320
S    15.76000023  15.90000057  49.06000137
C    18.32999992  15.29000092  48.30999756
C    17.07999992  15.75000000  47.94000244
C    16.72999954  16.07999992  46.58000183
C    17.75000000  16.05999947  45.61000061
C    19.05999947  15.72999954  46.00999832
C    20.09000015  15.86999989  45.05000305
C    21.40000153  15.42000008  45.31000137
C    21.70999908  14.84000015  46.56999969
C    20.72999954  14.78999996  47.56000137
C    19.36000061  15.21000004  47.34000397
C    15.29000092  16.18000031  46.43000031
C    14.65000057  16.00000000  47.67000198
C    13.30999947  15.88999939  47.70000076
C    23.19000053  14.77000046  46.88999939
H    23.46223068  15.19267273  47.85712814
H    18.54999924  15.21000004  49.38000107
H    17.46999931  16.23999977  44.58000183
H    19.73999977  16.26000023  44.09999847
H    22.20999908  15.71000004  44.65000153
H    21.04000092  14.53999996  48.56999969
H    12.76000023  15.95999908  48.62999725
H    23.85000038  15.29999924  46.19999695
H    23.48999977  13.71000099  46.88999939
S    15.93000031  12.76000023  52.08000183
C    18.46999931  12.35000038  51.26999664
C    17.19000053  12.35000038  50.90999985
C    16.64999962  12.13999939  49.58000183
C    17.61999893  11.72999954  48.63999939
C    18.96000099  11.67000008  48.97999573
C    20.00000000  11.07999992  48.16999817
C    21.31999969  11.18000031  48.40999985
C    21.75000000  11.52999973  49.72000122
C    20.81999969  12.05000019  50.61999893
C    19.40999985  12.13999939  50.28999710
C    15.21999931  12.28999996  49.50000000
C    14.68000031  12.74000072  50.75000000
C    13.31999969  12.96000004  50.89000320
C    23.22000122  11.31000042  50.13999939
H    23.49993515  11.63892460  51.14076996
H    18.78999901  12.63000011  52.27000427
H    17.28000069  11.13999939  47.80000305
H    19.64999962  10.54999924  47.29000092
H    22.01999855  10.62999916  47.78999710
H    21.11999893  12.34000015  51.62000275
H    12.88000011  13.27999973  51.83000183
H    23.48999977  10.24000072  50.14999771
H    23.92000008  11.77999973  49.43999863
S    11.84999943  12.25000000  47.32999802
C     9.26000023  12.69999981  48.15999985
C    10.57999992  12.61000061  48.47000122
C    11.14999962  12.98999977  49.73999786
C    10.29000092  13.42000008  50.77000046
C     8.89000034  13.53999996  50.51000214
C     7.92999983  14.00000000  51.44000244
C     6.61000013  14.04000092  51.32999802
C     6.10000038  13.56999969  50.08999634
C     6.97000027  13.23999977  49.08000183
C     8.34999943  13.07000065  49.22999954
C    12.56999969  12.81000042  49.78000259
C    13.10999966  12.38999939  48.57999802
C    14.47000027  12.13999939  48.40999985
C     4.67000008  13.93000031  49.79000092
H     4.41174459  13.42046928  48.86167908
H     8.89999962  12.64999962  47.14000320
H    10.71000004  13.63999939  51.73999786
H     8.30000019  14.34000015  52.41000366
H     5.93999958  14.22000027  52.16999817
H     6.53999996  13.20000076  48.08000183
H    14.89999962  11.82999992  47.45999908
H     4.59000015  15.00000000  49.59999847
H     4.00000000  13.73999977  50.63999939
