96

S    12.22000027  17.25000000  44.26000214
C     9.55999947  17.40999985  45.02999878
C    10.85000038  16.90999985  45.21999741
C    11.17000008  16.26000023  46.45999908
C    10.15999985  16.09000015  47.35000229
C     8.89000034  16.63999939  47.30999756
C     7.82000017  16.40999985  48.26000214
C     6.57999992  16.97999954  48.02999878
C     6.34000015  17.71999931  46.86000061
C     7.27999973  17.82999992  45.87999725
C     8.55000019  17.29999924  46.04000092
C    12.63000011  16.17000008  46.65000153
C    13.32999992  16.68000031  45.54999924
C    14.73000050  16.67000008  45.50000000
C     4.94000006  18.05999947  46.37000275
H     4.67668581  17.50565338  45.46918869
H     9.35999966  18.00000000  44.15000153
H    10.36999893  15.46000004  48.20999908
H     8.01000023  15.73999977  49.09999847
H     5.69000006  16.76000023  48.61000061
H     7.04999971  18.07999992  44.85000229
H    15.27999973  17.10000038  44.66999817
H     4.21999979  17.82999992  47.15999985
H     4.69999981  19.09000015  46.05999756
S    15.77000046  15.15999985  48.96999741
C    18.46999931  15.31000042  48.44999695
C    17.19000053  15.54999924  48.08000183
C    16.90000153  15.95999908  46.77000046
C    17.93000031  16.34000015  45.84999847
C    19.27000046  16.01000023  46.22000122
C    20.35000038  16.03000069  45.24000168
C    21.56999969  15.57000065  45.61000061
C    21.86000061  15.07999992  46.88999939
C    20.81999969  14.93000031  47.83000183
C    19.51000023  15.47999954  47.55000305
C    15.39999962  16.21000099  46.60999680
C    14.68000031  15.81999969  47.74000168
C    13.32999992  15.75000000  47.81000137
C    23.19999886  14.56999969  47.21000290
H    23.51890373  14.96685791  48.17379761
H    18.61999893  14.78999996  49.38999939
H    17.70000076  16.72999954  44.86000061
H    20.17000008  16.31999969  44.20999908
H    22.21999931  15.31000042  44.78000259
H    20.89999962  14.47000027  48.81000137
H    12.77999973  15.59999943  48.74000168
H    23.90999985  15.00000000  46.50000000
H    23.29999924  13.47000027  47.23999786
S    15.78999996  12.93000031  52.08000183
C    18.39999962  12.46999931  51.25999832
C    17.02000046  12.38999939  51.00000000
C    16.48999977  11.82000065  49.79000092
C    17.38999939  11.31999969  48.83999634
C    18.76000023  11.54000092  48.92000198
C    19.70000076  11.00999928  48.02999878
C    21.02999878  10.98000050  48.30999756
C    21.51000023  11.56999969  49.52000046
C    20.65999985  12.01000023  50.45999908
C    19.27000046  12.09000015  50.20999908
C    15.03999901  12.10999966  49.72999954
C    14.50000000  12.61000061  50.96000290
C    13.22000027  12.94999981  51.11999893
C    22.96999931  11.38000011  49.93000031
H    23.26364517  11.66648293  50.93984985
H    18.81999969  12.74000072  52.22999954
H    16.95999908  10.48999977  48.27999878
H    19.22000122  10.50000000  47.21000290
H    21.73999977  10.40999985  47.72999573
H    21.02999878  12.15999985  51.46999741
H    12.90999985  13.36999989  52.06999969
H    23.15000153  10.31000042  49.82999802
H    23.59000015  11.87000084  49.16999817
S    11.63000011  12.34000015  47.50999832
C     9.01000023  12.76000023  48.34999847
C    10.36999893  12.82999992  48.60000229
C    10.90999985  13.15000057  49.88999939
C    10.03999901  13.45000076  50.93000031
C     8.64999962  13.43000031  50.70000076
C     7.76000023  14.01999950  51.63999939
C     6.43000031  14.25000000  51.30000305
C     5.91000032  13.86999989  50.07999802
C     6.69000053  13.21000004  49.12000275
C     8.07999992  13.10999966  49.40000153
C    12.31999969  12.82999992  49.99000168
C    12.84999943  12.28000069  48.75000000
C    14.18000031  11.82000065  48.62999725
C     4.42000008  14.13000011  49.85000229
H     4.02298975  13.72577095  48.91883087
H     8.73000050  12.34000015  47.38999939
H    10.39999962  13.86000061  51.86999893
H     8.23000050  14.55999947  52.45999908
H     5.82000017  14.70000076  52.08000183
H     6.25000000  12.89999962  48.18000031
H    14.67000008  11.40999985  47.75000000
H     4.44000006  15.22999954  49.93999863
H     3.78999996  13.78999901  50.68000031
