96

S    12.28000069  16.97999954  44.40000153
C     9.59999943  17.21999931  45.21999741
C    10.88000107  16.87999916  45.48999786
C    11.31999969  16.50000000  46.77999878
C    10.36000061  16.32999992  47.74000168
C     9.04999924  16.82999992  47.52999878
C     7.99000025  16.79000092  48.54999924
C     6.74000025  17.27000046  48.29999924
C     6.43000031  17.75000000  47.01000214
C     7.37999964  17.79000092  46.00999832
C     8.64999962  17.25000000  46.25999832
C    12.76999950  16.47999954  46.95999908
C    13.40999985  16.67000008  45.72000122
C    14.78000069  16.51000023  45.65000153
C     5.01999950  18.05999947  46.65999985
H     4.59155035  17.40304375  45.90307236
H     9.39000034  17.73999977  44.29000092
H    10.51000023  15.69000053  48.61000061
H     8.26000023  16.51000023  49.55999756
H     6.05000019  17.35000038  49.13000107
H     7.25000000  18.12000084  44.98000336
H    15.29000092  16.48999977  44.68999863
H     4.40000010  17.86000061  47.54000092
H     4.94999981  19.11000061  46.33999634
S    15.88000107  15.88999939  49.36999893
C    18.60999870  15.36999893  48.56999969
C    17.29999924  15.77999973  48.29000092
C    16.90999985  16.18999863  46.95000076
C    17.88999939  16.27000046  45.90999985
C    19.13999939  15.73999977  46.19999695
C    20.20000076  15.75000000  45.17000198
C    21.47999954  15.38000011  45.43000031
C    21.87000084  14.84000015  46.73999786
C    20.86999893  14.80999947  47.74000168
C    19.55000114  15.32999992  47.50999832
C    15.51000023  16.39000130  46.81999969
C    14.82999992  16.32999992  48.02999878
C    13.47000027  16.34000015  48.13999939
C    23.29999924  14.48999977  47.09000015
H    23.60600662  15.10201168  47.93846893
H    18.96999931  15.13000011  49.55999756
H    17.70000076  16.61000061  44.89999771
H    20.03000069  16.32999992  44.26000214
H    22.25000000  15.51000023  44.68000031
H    21.09000015  14.57999992  48.77999878
H    13.02999973  16.18000031  49.12000275
H    23.90000153  14.80999947  46.23000336
H    23.32999992  13.42000008  47.31999969
S    11.90000057  17.54999924  50.91999817
C     9.25000000  17.73999977  51.86000061
C    10.52999973  17.30999947  52.05999756
C    10.90000057  16.69999886  53.29000092
C     9.89999962  16.36000061  54.23999786
C     8.56999969  16.87999916  54.00000000
C     7.53999996  16.77999878  54.95999908
C     6.21999979  17.13999939  54.72999954
C     5.92000008  17.71000099  53.46000290
C     6.93000031  17.94999886  52.52999878
C     8.26000023  17.53999901  52.78999710
C    12.35000038  16.59000015  53.44999695
C    13.04999924  16.97000122  52.23999786
C    14.42999935  17.02999878  52.16999817
C     4.46999979  18.13999939  53.09999847
H     4.06853342  17.49478531  52.31857300
H     9.02000046  18.35000038  50.97999954
H    10.10000038  15.76000023  55.12000275
H     7.77999973  16.31999969  55.91999817
H     5.40000010  17.09000015  55.43000031
H     6.70000029  18.38999939  51.56000137
H    15.03999901  17.25000000  51.30000305
H     3.82999992  18.04000092  53.99000168
H     4.42000008  19.19999886  52.81000137
S    15.57000065  15.80000019  55.86000061
C    18.17000008  15.39000034  55.01999664
C    16.95000076  15.98999977  54.79000092
C    16.54999924  16.52000046  53.50999832
C    17.50000000  16.70999908  52.54000092
C    18.86999893  16.25000000  52.77000046
C    19.88000107  16.42000008  51.76000214
C    21.17000198  15.98000050  52.02000046
C    21.47999954  15.43000031  53.34000015
C    20.52000046  15.17000008  54.22999954
C    19.14999962  15.53999996  54.02000046
C    15.11000061  16.67000008  53.36000061
C    14.42000008  16.31000137  54.58000183
C    13.02000046  16.20000076  54.58000183
C    22.84000015  15.01000023  53.81999969
H    23.15989494  15.58283710  54.69041443
H    18.38999939  15.01999950  56.02000427
H    17.06999969  17.10000038  51.62000275
H    19.60000038  16.94000053  50.84999847
H    21.91999817  16.09000015  51.23000336
H    20.73999786  14.68000031  55.17000198
H    12.48000050  15.80999947  55.44000244
H    23.61999893  15.06999969  53.04000092
H    22.88999939  13.94000053  54.02999878
