96

S    12.22000027  16.76000023  44.31999969
C     9.55000019  17.25000000  45.13999939
C    10.77000046  16.72000122  45.38000107
C    11.10000038  16.15999985  46.66999817
C    10.08999920  16.01000023  47.55000305
C     8.76000023  16.47999954  47.32999802
C     7.71000004  16.27000046  48.22999954
C     6.43000031  16.47999954  47.90000153
C     6.17000008  17.05999947  46.66999817
C     7.17999983  17.45000076  45.81999969
C     8.51000023  17.10000038  46.06999969
C    12.55000019  16.01000023  46.84000015
C    13.27999973  16.29999924  45.68999863
C    14.60999966  16.39999962  45.65000153
C     4.72000027  17.43999863  46.25000000
H     4.40286827  16.81311226  45.41661072
H     9.25000000  17.86000061  44.29000092
H    10.34000015  15.75000000  48.57999802
H     8.06999969  15.82999992  49.15999985
H     5.63000011  16.13000107  48.54999924
H     6.98999977  17.92000008  44.86000061
H    15.03000069  16.93000031  44.79999924
H     3.97000027  17.45000076  47.04999924
H     4.72000027  18.52000046  46.05999756
S    15.62999916  15.14999962  49.18000031
C    18.32999992  14.89999962  48.48999786
C    17.09000015  15.29999924  48.18000031
C    16.76000023  15.77999973  46.88000107
C    17.71000099  16.00000000  45.87999725
C    19.00000000  15.46000004  46.14999771
C    19.93999863  15.29000092  45.13000107
C    21.19999886  14.77000046  45.34000015
C    21.54000092  14.34000015  46.69000244
C    20.53999901  14.28999996  47.65999603
C    19.27000046  14.88000011  47.43000031
C    15.32999992  15.93999958  46.72999954
C    14.61999989  15.65000057  47.93000031
C    13.25000000  15.72999954  47.97999954
C    22.93999863  13.90999985  47.02999878
H    23.26138496  14.35279751  47.97272873
H    18.55999947  14.34000015  49.38999939
H    17.43000031  16.07999992  44.82999802
H    19.71999931  15.67000008  44.13999939
H    21.96000099  14.75000000  44.56999969
H    20.82999992  14.01999950  48.68000031
H    12.81000042  15.46000004  48.94000244
H    23.62999916  14.19999981  46.22000122
H    22.89999962  12.82999992  47.18999863
S    15.90000057  12.57999992  52.41000366
C    18.55999947  12.02999973  51.68000031
C    17.27000046  12.10999966  51.31000137
C    16.87000084  11.78999996  50.00000000
C    17.81999969  11.40999985  49.01000214
C    19.18000031  11.36999989  49.36000061
C    20.15000153  10.78999996  48.46000290
C    21.47000122  10.65999985  48.87000275
C    21.87999916  11.10999966  50.14999771
C    21.01000023  11.67000008  51.04999924
C    19.59000015  11.77999973  50.70000076
C    15.40999985  11.95000076  49.86000061
C    14.80999947  12.43000031  51.06999969
C    13.45999908  12.72999954  51.19999695
C    23.36999893  10.88999939  50.50000000
H    23.60553932  11.44941044  51.40536118
H    18.82999992  12.28000069  52.70000076
H    17.50000000  11.05999947  48.02999878
H    19.77000046  10.40999985  47.51999664
H    22.27000046  10.21999931  48.27000046
H    21.24000168  11.96000004  52.06999969
H    13.02999973  13.02999973  52.15000153
H    23.52000046   9.81999969  50.70000076
H    23.97999954  11.10000038  49.61000061
S    12.15999985  12.00000000  47.44999695
C     9.40999985  12.34000015  48.29999924
C    10.76000023  12.44999981  48.54999924
C    11.18999958  12.76999950  49.88999939
C    10.34000015  13.17999935  50.86000061
C     8.93000031  13.27999973  50.54000092
C     7.97999954  13.63999939  51.47999573
C     6.63999987  13.63000011  51.18000031
C     6.14000034  13.25000000  49.91000366
C     7.03999996  12.84000015  48.90999603
C     8.47000027  12.82999992  49.22999954
C    12.64000034  12.56999969  50.01999664
C    13.22999954  12.10000038  48.81999969
C    14.60999966  11.79999924  48.75999832
C     4.72000027  13.57999992  49.52000046
H     4.46461391  13.14515305  48.55367279
H     9.06999969  11.96000004  47.34000397
H    10.64000034  13.36999989  51.88999939
H     8.27999973  14.04999924  52.43999863
H     5.91000032  13.99000072  51.90000153
H     6.81999969  12.38000011  47.95000076
H    15.06000042  11.61000061  47.78999710
H     4.42999983  14.63999939  49.59000015
H     4.09000015  13.10999966  50.27999878
