96

S    11.77999973  16.76000023  44.15999985
C     9.21000004  17.29999924  44.98000336
C    10.44000053  16.79999924  45.31000137
C    10.73999977  16.25000000  46.50000000
C     9.76000023  16.14999962  47.44999695
C     8.46000004  16.61000061  47.15999985
C     7.44999981  16.62999916  48.15000153
C     6.24000025  17.18000031  47.94000244
C     5.98000002  17.57999992  46.59999847
C     6.90999985  17.63000107  45.63999939
C     8.23000050  17.21999931  45.90000153
C    12.15000057  15.88000107  46.66999817
C    12.84999943  16.10999870  45.50000000
C    14.22000027  16.02000046  45.44000244
C     4.61999989  18.02999878  46.26999664
H     4.22588921  17.43525124  45.44594955
H     8.93999958  17.57999992  43.96999741
H    10.10000038  15.82999992  48.43999863
H     7.76999998  16.39000130  49.15999985
H     5.49000025  17.43999863  48.67000198
H     6.76999998  18.06999969  44.65999985
H    14.72000027  16.35000038  44.54000092
H     3.88999987  18.12999916  47.08000183
H     4.80999994  19.03000069  45.86000061
S    15.34999943  15.36000061  49.23999786
C    18.04000092  14.88999939  48.43000031
C    16.79000092  15.38000011  48.13999939
C    16.45000076  15.65999985  46.77000046
C    17.45000076  15.62000084  45.79999924
C    18.78999901  15.32999992  46.12999725
C    19.81999969  15.39000034  45.20999908
C    21.11000061  15.01000023  45.45000076
C    21.40000153  14.55999947  46.75000000
C    20.45999908  14.59000015  47.76000214
C    19.11000061  15.01000023  47.50000000
C    14.94999981  15.82999992  46.60999680
C    14.26000023  15.76000023  47.84999847
C    12.84000015  15.65000057  47.84000015
C    22.77000046  14.14000034  47.04000092
H    23.00852776  14.68720818  47.95201492
H    18.30999947  14.67000008  49.45999908
H    17.20999908  15.77000046  44.75000000
H    19.59000015  15.82999992  44.25000000
H    21.76000214  14.85999966  44.59000015
H    20.72999954  14.19999981  48.73000336
H    12.31999969  15.44999981  48.76999664
H    23.45000076  14.42999935  46.23000336
H    22.82999992  13.07999992  47.31999969
S    11.87999916  16.80999947  50.93000031
C     9.35999966  17.34000015  51.77999878
C    10.54999924  16.90000153  52.08000183
C    10.88999939  16.55999947  53.39000320
C     9.96999931  16.51000023  54.38999939
C     8.61999989  16.95999908  54.02999878
C     7.55999994  16.79999924  54.94999695
C     6.24000025  17.17000008  54.61999893
C     5.91000032  17.69000053  53.36999893
C     6.96000004  17.80999947  52.43999863
C     8.30000019  17.40999985  52.75000000
C    12.31999969  16.39999962  53.46000290
C    12.98999977  16.60000038  52.22999954
C    14.40000057  16.47999954  52.22999954
C     4.48000002  18.15000153  53.09999847
H     4.04697323  17.43550682  52.39993668
H     9.19000053  17.86000061  50.84000015
H    10.08999920  16.00000000  55.34000015
H     7.75000000  16.25000000  55.86999893
H     5.38999987  16.92000008  55.25000000
H     6.80999994  18.20999908  51.44000244
H    14.98999977  16.64999962  51.33999634
H     3.86000013  18.18000031  54.00000000
H     4.51999998  19.15999985  52.65999603
S    15.34000015  15.15999985  55.86000061
C    18.04000092  14.93000031  55.24000168
C    16.72999954  15.36000061  54.88999939
C    16.46000099  15.93000031  53.60000229
C    17.56000137  15.98000050  52.70000076
C    18.86000061  15.59999943  53.00000000
C    19.93000031  15.72000027  52.09999847
C    21.18000031  15.19000053  52.42000198
C    21.47000122  14.60999966  53.72000122
C    20.45000076  14.51000023  54.61000061
C    19.11999893  15.06000042  54.34000015
C    15.03000069  16.11999893  53.40999985
C    14.30999947  15.81999969  54.56999969
C    13.00000000  15.98999977  54.61000061
C    22.88999939  14.35999966  54.12000275
H    23.26018906  14.95520592  54.95474243
H    18.19000053  14.27999973  56.10000229
H    17.29999924  16.39999962  51.72999954
H    19.77000046  16.17000008  51.11999893
H    22.01999855  15.40999985  51.76000214
H    20.52000046  14.01000023  55.56999969
H    12.51000023  15.92000008  55.58000183
H    23.52000046  14.52999973  53.23999786
H    22.95999908  13.30000019  54.38000107
