96

S    12.27000046  17.04000092  44.13000107
C     9.61999989  17.50000000  44.86999893
C    10.86999989  17.07999992  45.24000168
C    11.25000000  16.69000053  46.56000137
C    10.18000031  16.60000038  47.48000336
C     8.84000015  16.95000076  47.16999817
C     7.71000004  17.07999992  48.15000153
C     6.56000042  17.67000008  47.76000214
C     6.30999994  18.02999878  46.40999603
C     7.30999994  18.07999992  45.52999878
C     8.60000038  17.46999931  45.83000183
C    12.71999931  16.70999908  46.77999878
C    13.36999989  16.72000122  45.54999924
C    14.73000050  16.64999962  45.45999908
C     4.92000008  18.38999939  45.98999786
H     4.60175467  17.77472687  45.14841843
H     9.27999973  17.88999939  43.90999603
H    10.25000000  16.21999931  48.50000000
H     7.92999983  16.76000023  49.16999817
H     5.78000021  17.84000015  48.50000000
H     7.17000008  18.36000061  44.48999786
H    15.24000072  16.75000000  44.50000000
H     4.18000031  18.25000000  46.79000092
H     4.92999983  19.40999985  45.58000183
S    15.93000031  15.76000023  49.10999680
C    18.59000015  15.21000004  48.22999954
C    17.35999870  15.73999977  47.98999786
C    16.97999954  16.29999924  46.72000122
C    17.95999908  16.39000130  45.79999924
C    19.23999977  15.84000015  46.00999832
C    20.36000061  16.06999969  45.13999939
C    21.59000015  15.72999954  45.56999969
C    21.86000061  14.98999977  46.73999786
C    20.82999992  14.73999977  47.54000092
C    19.51000023  15.15999985  47.22999954
C    15.57000065  16.48999977  46.60999680
C    14.84000015  16.31000137  47.84000015
C    13.45999908  16.46000099  47.95999908
C    23.29000092  14.68000031  47.19999695
H    23.71327782  15.26382828  48.01736069
H    18.81000137  14.85000038  49.23999786
H    17.73999977  16.97000122  44.89999771
H    20.22000122  16.57999992  44.19000244
H    22.39000130  16.09000015  44.93000031
H    21.07999992  14.44000053  48.55999756
H    13.03999996  16.21999931  48.93000031
H    23.85000038  14.70000076  46.25999832
H    23.16999817  13.66000080  47.57999802
S    16.29999924  13.09000015  52.25000000
C    18.86999893  12.43000031  51.38000107
C    17.53999901  12.46000099  51.11999893
C    17.04000092  12.23000050  49.81999969
C    17.92000008  11.77000046  48.88000107
C    19.29999924  11.69999981  49.13000107
C    20.27000046  11.21000099  48.15999985
C    21.63000107  11.26999950  48.39000320
C    22.06999969  11.77999973  49.64000320
C    21.18999863  12.30000019  50.52999878
C    19.78000069  12.18999958  50.33000183
C    15.64000034  12.56000042  49.68000031
C    15.07999992  13.05999947  50.87999725
C    13.76000023  13.40999985  50.90000153
C    23.52000046  11.51000023  50.12000275
H    23.73823166  11.95350361  51.09148788
H    19.23999977  12.90999985  52.28000259
H    17.53000069  11.51000023  47.90000153
H    19.81999969  10.62000084  47.36999893
H    22.32999992  10.71000004  47.77999878
H    21.50000000  12.55000019  51.53999710
H    13.21000004  13.73999977  51.77000046
H    23.65999985  10.42000008  50.20000076
H    24.15999985  11.84000015  49.29999924
S    12.30999947  12.44999981  47.37999725
C     9.55999947  12.81000042  48.22999954
C    10.95999908  12.97999954  48.47000122
C    11.46999931  13.40000057  49.71000290
C    10.57999992  13.86000061  50.66999817
C     9.19999981  13.60000038  50.56999969
C     8.34000015  14.00000000  51.56999969
C     6.98000002  13.94999981  51.45999908
C     6.39999962  13.45000076  50.21999741
C     7.26999998  12.86999893  49.27999878
C     8.67000008  13.09999943  49.34000015
C    12.94000053  13.31999969  49.77000427
C    13.55999947  12.82999992  48.59000397
C    14.88000011  12.48000050  48.50999832
C     4.99000025  13.81999969  49.75000000
H     4.82791042  13.70019436  48.67879868
H     9.22999954  12.50000000  47.23999786
H    11.02000046  14.44000053  51.47999573
H     8.85000038  14.61999989  52.29999924
H     6.43000031  14.50000000  52.22000122
H     6.85999966  12.53000069  48.33000183
H    15.19999981  11.89000034  47.65999603
H     4.97000027  14.88999939  49.98000336
H     4.23000002  13.27000046  50.33000183
