96

S    12.48000050  17.28999901  44.25000000
C     9.77000046  17.64999962  45.00999832
C    11.02000046  17.22999954  45.31999969
C    11.33999920  16.63999939  46.58000183
C    10.31999969  16.44000053  47.47000122
C     9.03999996  16.98999977  47.22000122
C     8.01999950  16.82999992  48.15999985
C     6.80000019  17.40999985  47.90999985
C     6.51999998  18.12000084  46.73999786
C     7.53999996  18.27999878  45.89000320
C     8.82000065  17.63000107  46.00000000
C    12.81999969  16.54999924  46.77999878
C    13.53000069  16.82999992  45.58000183
C    14.91000080  16.68000031  45.56999969
C     5.12000036  18.54999924  46.37000275
H     4.69023085  17.96981049  45.55343628
H     9.55000019  18.05999947  44.02999878
H    10.44999981  15.95999908  48.43999863
H     8.25000000  16.40999985  49.13999939
H     6.01999998  17.32999992  48.66000366
H     7.27999973  18.85000038  45.00999832
H    15.39999962  16.72000122  44.59999847
H     4.46999979  18.48999977  47.25000000
H     5.26999998  19.60000038  46.09000397
S    15.92000008  15.67999935  49.26000214
C    18.59000015  15.14000034  48.47999954
C    17.29999924  15.52999973  48.18999863
C    16.94000053  16.03999901  46.88999939
C    18.02000046  16.11999893  45.97000122
C    19.32999992  15.85000038  46.31000137
C    20.36999893  16.02000046  45.34000015
C    21.63000107  15.52000046  45.72000122
C    21.90000153  14.81999969  46.95000076
C    20.88000107  14.75999928  47.84000015
C    19.64999962  15.27999973  47.56000137
C    15.55999947  16.36000061  46.73999786
C    14.86999989  16.18000031  47.95999908
C    13.50000000  16.28000069  47.95999908
C    23.32999992  14.35999966  47.25999832
H    23.59846306  14.59863567  48.28911591
H    18.72999954  14.73999977  49.47999954
H    17.77000046  16.43000031  44.94999695
H    20.15999985  16.36999893  44.33000183
H    22.50999832  15.71000004  45.11000061
H    20.95999908  14.29999924  48.81999969
H    12.90999985  16.15999985  48.87000275
H    23.94000053  14.93000031  46.53999710
H    23.54999924  13.30000019  47.09000015
S    16.17000008  12.61000061  52.36999893
C    18.85000038  12.39999962  51.55000305
C    17.53999901  12.34000015  51.27999878
C    17.07999992  12.15000057  49.93999863
C    17.94000053  11.76000023  48.97999573
C    19.29000092  11.69999981  49.27999878
C    20.19000053  11.10000038  48.34999847
C    21.54000092  10.98000050  48.62999725
C    22.01999855  11.39999962  49.91000366
C    21.18000031  12.02999973  50.83000183
C    19.81999969  12.13000107  50.54999924
C    15.64000034  12.38999939  49.79000092
C    15.03000069  12.86000061  50.96000290
C    13.71999931  13.35000038  51.06999969
C    23.25000000  10.71000004  50.43000031
H    23.60453987  11.15672016  51.35889435
H    19.17000008  12.51000023  52.57999802
H    17.57999992  11.64999962  47.97000122
H    19.85000038  10.57999992  47.44999695
H    22.04999924  10.43000031  47.84999847
H    21.47999954  12.32999992  51.84000015
H    13.27000046  13.80000019  51.95000076
H    22.86999893   9.72000027  50.68999863
H    24.00000000  10.69000053  49.62999725
S    12.25000000  12.50000000  47.42000198
C     9.68999958  13.14000034  48.20999908
C    11.03999996  13.12000084  48.48999786
C    11.50000000  13.47000027  49.75000000
C    10.57000065  13.83999920  50.72999954
C     9.22000027  14.01000023  50.45999908
C     8.15999985  14.40999985  51.38999939
C     6.83000040  14.37000084  51.05999756
C     6.38999987  13.97999954  49.75999832
C     7.27999973  13.78000069  48.83999634
C     8.69999981  13.60999966  49.13999939
C    12.90999985  13.15000057  49.93000031
C    13.43999958  12.61999989  48.72000122
C    14.75999928  12.22000027  48.62999725
C     4.92999983  13.66000080  49.40999985
H     4.59579802  14.25018597  48.55671692
H     9.42000008  12.93000031  47.16999817
H    10.90000057  13.86000061  51.76000214
H     8.48999977  14.39000034  52.43000031
H     6.09000015  14.48999977  51.84000015
H     6.94999981  13.60999966  47.81999969
H    15.10000038  11.80999947  47.69000244
H     4.35999966  13.82999992  50.33000183
H     4.88000011  12.58999920  49.20999908
