96

S    12.28000069  16.67000008  44.31000137
C     9.59000015  17.10000038  45.06000137
C    10.77999973  16.48999977  45.31999969
C    11.03999996  15.95999908  46.65000153
C     9.92999935  15.97000027  47.54000092
C     8.69000053  16.47999954  47.21000290
C     7.57000017  16.42000008  48.13000107
C     6.34999990  16.86000061  47.74000168
C     6.21999979  17.61000061  46.50000000
C     7.26999998  17.70000076  45.61000061
C     8.53999996  17.11000061  45.96000290
C    12.46999931  15.76000023  46.84000015
C    13.20000076  16.23999977  45.72999954
C    14.56999969  16.23999977  45.68000031
C     4.80999994  17.88999939  45.93000031
H     4.68583298  17.28296089  45.03323746
H     9.36999989  17.52000046  44.09000015
H    10.05000019  15.44999981  48.48999786
H     7.63999987  15.90000057  49.08000183
H     5.56999969  16.73999977  48.48999786
H     7.09999990  18.11000061  44.61999893
H    15.11000061  16.53000069  44.79000092
H     4.05000019  17.71000099  46.70000076
H     4.77999973  18.95000076  45.65999985
S    15.62999916  14.93999958  49.31000137
C    18.22999954  14.65999985  48.47000122
C    17.05000114  15.14999962  48.25000000
C    16.63999939  15.76000023  47.02999878
C    17.67000008  16.07999992  46.14999771
C    18.96999931  15.50000000  46.29000092
C    19.98999977  15.52999973  45.34000015
C    21.22999954  14.92000008  45.52000046
C    21.50000000  14.19999981  46.72000122
C    20.45999908  14.02999973  47.65999603
C    19.19999886  14.73000050  47.50999832
C    15.19999981  15.88999939  46.88999939
C    14.47000027  15.48999977  48.04000092
C    13.10999966  15.39999962  47.98999786
C    22.96999931  13.86999989  47.09999847
H    23.35543823  14.58377647  47.82804871
H    18.35000038  14.00000000  49.31999969
H    17.40999985  16.50000000  45.18000031
H    19.77000046  16.10999870  44.45000076
H    22.11000061  15.19000053  44.94999695
H    20.65999985  13.75000000  48.68999863
H    12.61000061  15.17000008  48.93000031
H    23.67000198  13.94999981  46.26999664
H    22.98999977  12.86000061  47.51999664
S    11.51999950  16.72000122  50.79000092
C     8.93000031  17.21999931  51.55000305
C    10.15999985  16.87999916  51.93000031
C    10.52999973  16.46999931  53.22999954
C     9.52000046  16.46000099  54.20000076
C     8.17000008  16.84999847  53.81999969
C     7.14999962  16.87999916  54.77000427
C     5.93999958  17.20999908  54.36000061
C     5.65000010  17.73999977  53.09000015
C     6.65000010  17.79000092  52.22000122
C     7.90000010  17.26000023  52.49000168
C    11.97000027  16.13000107  53.34999847
C    12.64000034  16.31999969  52.09000015
C    14.01999950  16.21999931  52.02999878
C     4.23999977  18.15000153  52.60000229
H     3.87840176  17.55892563  51.75859070
H     8.64000034  17.35999870  50.51000214
H     9.73999977  16.39999962  55.26000214
H     7.25000000  16.40999985  55.73999786
H     5.03999996  17.04000092  54.94999695
H     6.44000006  18.18000031  51.23000336
H    14.60999966  16.63999939  51.20999908
H     3.48000002  18.05999947  53.39000320
H     4.26000023  19.20999908  52.30999756
S    15.14999962  15.19000053  55.72999954
C    17.80999947  15.10000038  55.02999878
C    16.54000092  15.46000004  54.64000320
C    16.18999863  15.92000008  53.33000183
C    17.30999947  16.09000015  52.48000336
C    18.64999962  15.70000076  52.91999817
C    19.73999977  15.60999966  51.98999786
C    20.94000053  14.92000008  52.22999954
C    21.21000099  14.63999939  53.60000229
C    20.22999954  14.75999928  54.61999893
C    18.94000053  15.19000053  54.22999954
C    14.75000000  15.85999966  53.18999863
C    14.01999950  15.55999947  54.40000153
C    12.69000053  15.73999977  54.47999954
C    22.62000084  14.27999973  54.02000046
H    23.02202415  14.84837914  54.85870361
H    17.93000031  14.63000107  56.00000000
H    17.02999878  16.39000130  51.46999741
H    19.43000031  15.88999939  50.98999786
H    21.80000114  14.91000080  51.56999969
H    20.45999908  14.42999935  55.63999939
H    12.23000050  15.55999947  55.44000244
H    23.26999855  14.46000004  53.15000153
H    22.76000023  13.22000027  54.29999924
