96

S    12.15999985  16.90000153  44.29000092
C     9.47000027  17.20999908  44.94999695
C    10.71000004  16.77000046  45.22999573
C    11.03999996  16.21000099  46.56000137
C    10.03000069  15.98000050  47.47000122
C     8.69000053  16.39000130  47.21000290
C     7.59000015  16.22999954  48.13000107
C     6.30999994  16.64999962  47.70999908
C     6.11999989  17.34000015  46.47999573
C     7.23999977  17.59000015  45.66999817
C     8.47000027  17.00000000  45.90000153
C    12.48999977  16.10000038  46.83000183
C    13.19000053  16.50000000  45.65999985
C    14.55000019  16.68000031  45.65000153
C     4.73000002  17.76000023  46.11000061
H     4.32605314  17.29337120  45.21156693
H     9.13999939  17.76000023  44.06999969
H    10.26000023  15.51000023  48.41999817
H     7.72000027  15.88000107  49.15000153
H     5.55999994  16.54999924  48.50000000
H     7.13999987  18.15999985  44.75000000
H    15.05000019  16.86000061  44.71000290
H     4.05999994  17.61999893  46.97000122
H     4.59999990  18.79999924  45.80999756
S    15.67999935  15.39000034  49.29000092
C    18.32999992  15.07999992  48.55999756
C    17.07999992  15.55999947  48.26000214
C    16.68000031  16.07999992  46.98999786
C    17.63000107  16.18000031  46.04999924
C    18.97999954  15.88999939  46.31000137
C    19.92000008  15.93000031  45.26000214
C    21.18999863  15.36999893  45.43000031
C    21.60000038  14.82999992  46.72999954
C    20.66999817  14.70000076  47.77999878
C    19.29999924  15.21999931  47.57999802
C    15.22999954  16.43000031  46.86000061
C    14.56999969  16.00000000  48.06000137
C    13.17999935  15.82999992  48.04000092
C    23.00000000  14.34999943  46.95000076
H    23.41630554  14.84664440  47.82643127
H    18.59000015  14.42999935  49.38999939
H    17.30999947  16.50000000  45.06000137
H    19.68000031  16.36000061  44.29000092
H    21.83000183  15.25000000  44.55999756
H    20.84000015  14.27000046  48.75999832
H    12.61000061  15.44999981  48.88000107
H    23.57000160  14.70000076  46.07999802
H    23.09000015  13.27000046  47.14000320
S    11.90000057  17.15999985  50.86999893
C     9.27999973  17.61000061  51.68000031
C    10.48999977  17.05999947  51.93999863
C    10.72000027  16.46000099  53.22000122
C     9.77000046  16.48999977  54.13999939
C     8.52999973  17.07999992  53.99000168
C     7.37999964  16.79999924  54.78000259
C     6.15000010  17.30999947  54.47000122
C     5.93999958  17.93000031  53.20000076
C     6.98999977  18.09999847  52.37999725
C     8.28999996  17.71000099  52.71999741
C    12.13000107  16.15999985  53.31999969
C    12.94000053  16.54000092  52.25000000
C    14.32000065  16.61999893  52.25000000
C     4.57999992  18.32999992  52.74000168
H     4.17199993  17.52831459  52.12442398
H     9.01000023  17.81999969  50.65000153
H     9.85999966  15.84000015  55.00999832
H     7.49000025  16.25000000  55.70999908
H     5.33999968  17.38999939  55.19000244
H     6.80999994  18.54999924  51.40999603
H    14.84000015  17.02999878  51.38999939
H     3.97000027  18.53999901  53.61999893
H     4.67999983  19.31999969  52.28000259
S    15.44999981  15.55999947  55.84999847
C    18.12999916  15.39999962  55.06000137
C    16.86000061  15.73999977  54.75999832
C    16.46000099  16.10000038  53.44999695
C    17.47999954  16.26000023  52.47000122
C    18.78999901  15.86999989  52.75000000
C    19.84000015  15.81999969  51.77999878
C    21.00000000  15.19999981  52.15999985
C    21.35999870  14.84000015  53.50000000
C    20.38999939  14.93000031  54.45000076
C    19.13999939  15.44000053  54.09999847
C    15.00000000  16.14999962  53.34999847
C    14.27000046  15.90999985  54.52000046
C    12.79999924  15.82999992  54.54000092
C    22.75000000  14.47000027  53.89999771
H    23.07417297  15.11834717  54.71403503
H    18.27999878  14.92000008  56.02000427
H    17.19000053  16.62999916  51.49000168
H    19.63999939  16.06999969  50.73999786
H    21.73999977  14.91000080  51.42000198
H    20.55999947  14.48999977  55.43000031
H    12.22000027  15.69000053  55.44000244
H    23.43000031  14.52000046  53.04000092
H    22.67999840  13.42000008  54.20999908
