96

S    12.01000023  16.51000023  44.33000183
C     9.43000031  17.21999931  45.11000061
C    10.59999943  16.62999916  45.38999939
C    10.93999958  16.21000099  46.72000122
C     9.96999931  16.17000008  47.70000076
C     8.65999985  16.65999985  47.43000031
C     7.64999962  16.53000069  48.37999725
C     6.38999987  17.00000000  48.09000015
C     6.11000013  17.47999954  46.77999878
C     7.03999996  17.68000031  45.81999969
C     8.36000061  17.23999977  46.13999939
C    12.35000038  16.13999939  46.90000153
C    13.10999966  16.23999977  45.68000031
C    14.45000076  16.23999977  45.61999893
C     4.73000002  17.94000053  46.50000000
H     4.36716318  17.55582047  45.54666138
H     9.11999989  17.67000008  44.18000031
H    10.15999985  15.57999992  48.60000229
H     7.96999979  16.05999947  49.31000137
H     5.64000034  16.98999977  48.88000107
H     6.84000015  18.13999939  44.86000061
H    14.98000050  16.29999924  44.66999817
H     4.11999989  17.51000023  47.29999924
H     4.59000015  19.02000046  46.62000275
S    15.50000000  15.59000015  49.41999817
C    18.19000053  15.10000038  48.60000229
C    16.93000031  15.47000027  48.33000183
C    16.53000069  15.77999973  46.91999817
C    17.50000000  15.82999992  45.93999863
C    18.84000015  15.50000000  46.27999878
C    19.85000038  15.42000008  45.27999878
C    21.04000092  14.80000019  45.50000000
C    21.44000053  14.39000034  46.81000137
C    20.50000000  14.48999977  47.77000046
C    19.20999908  15.08999920  47.62000275
C    15.10000038  16.03999901  46.84999847
C    14.40999985  16.00000000  48.13999939
C    13.05999947  15.86999989  48.09000015
C    22.81999969  14.01999950  47.11000061
H    23.21828461  14.62092209  47.92753220
H    18.45000076  14.60999966  49.52999878
H    17.28000069  16.09000015  44.91000366
H    19.65999985  15.67000008  44.23999786
H    21.78999901  14.75999928  44.72000122
H    20.62999916  14.09000015  48.76999664
H    12.46999931  15.29000092  48.80000305
H    23.40999985  14.28999996  46.23000336
H    22.88999939  12.94000053  47.28000259
S    16.03999901  12.97999954  52.23999786
C    18.65999985  12.36999989  51.38000107
C    17.31999969  12.34000015  51.09000397
C    16.79000092  11.95000076  49.80999756
C    17.64999962  11.56000042  48.80000305
C    19.00000000  11.56000042  49.00000000
C    19.93000031  10.98999977  48.06000137
C    21.28999901  10.88000107  48.50999832
C    21.67000008  11.19999981  49.80999756
C    20.82999992  11.69999981  50.63999939
C    19.48999977  11.89000034  50.30000305
C    15.27999973  12.05999947  49.79999924
C    14.73999977  12.65999985  51.03000259
C    13.35000038  13.01000023  51.11999893
C    23.16999817  11.10999966  50.17000198
H    23.41374779  11.36091709  51.20234299
H    19.01000023  12.76000023  52.32999802
H    17.20999908  11.11999989  47.90999985
H    19.55000114  10.52999973  47.15000153
H    22.04000092  10.34000015  47.94000244
H    21.15999985  12.05000019  51.60999680
H    12.88000011  13.45999908  51.98999786
H    23.52000046  10.11000061  49.86000061
H    23.71000099  11.78999996  49.48999786
S    11.84999943  12.00000000  47.61000061
C     9.15999985  12.34000015  48.61000061
C    10.52999973  12.51000023  48.75999832
C    11.10000038  12.93000031  49.98000336
C    10.26999950  13.40000057  51.00999832
C     8.86999989  13.35000038  50.89000320
C     8.01000023  13.89000034  51.83000183
C     6.65000010  14.18000031  51.51000214
C     6.14000034  13.61999989  50.26000214
C     6.94000006  12.94000053  49.40999985
C     8.34000015  12.84000015  49.65999985
C    12.53999901  12.82999992  50.05000305
C    13.07999992  12.27000046  48.82999802
C    14.40000057  11.80999947  48.70999908
C     4.73000002  13.92000008  49.93999863
H     4.40098858  13.38535690  49.04892731
H     8.78000069  12.10000038  47.62000275
H    10.77999973  13.75000000  51.90999985
H     8.39999962  14.30999947  52.75000000
H     6.01000023  14.78999996  52.14000320
H     6.51999998  12.56000042  48.47999954
H    14.80000019  11.39000034  47.78999710
H     4.57999992  15.00000000  49.85000229
H     4.02999973  13.56999969  50.70999908
