96

S    12.28999996  16.94000053  44.34999847
C     9.68000031  17.32999992  45.02999878
C    10.86999989  16.79000092  45.37000275
C    11.19999981  16.36999893  46.69000244
C    10.19000053  16.35000038  47.67000198
C     8.88000011  16.84999847  47.36000061
C     7.82000017  16.98999977  48.33000183
C     6.52999973  17.27000046  47.90999985
C     6.32999992  17.70000076  46.56999969
C     7.36999989  17.79999924  45.70000076
C     8.60000038  17.34000015  46.02000427
C    12.67000008  16.28999901  46.83000183
C    13.40999985  16.46999931  45.66999817
C    14.81999969  16.34000015  45.63999939
C     4.90000010  18.17000008  46.23000336
H     4.44859171  17.59868431  45.41887665
H     9.56999969  17.87999916  44.09999847
H    10.39000034  16.03999901  48.68999863
H     7.90999985  17.02000046  49.41999817
H     5.66999960  17.31999969  48.56999969
H     7.11999989  18.15000153  44.69999695
H    15.36000061  16.44000053  44.69999695
H     4.19999981  18.20000076  47.06999969
H     4.90999985  19.22999954  45.93999863
S    15.90999985  15.76000023  49.38999939
C    18.52000046  15.19000053  48.61999893
C    17.28000069  15.71000004  48.36999893
C    16.93000031  16.09000015  46.95999908
C    17.93000031  16.03999901  45.97999954
C    19.19000053  15.62000084  46.36000061
C    20.20000076  15.60999966  45.34999847
C    21.45999908  15.11000061  45.58000183
C    21.73000145  14.70999908  46.93000031
C    20.82999992  14.85000038  47.94000244
C    19.52999878  15.19000053  47.63000107
C    15.51000023  16.21000099  46.83000183
C    14.82999992  16.25000000  48.02000046
C    13.45999908  16.20000076  48.02000046
C    23.12999916  14.37999916  47.29000092
H    23.55223274  14.99545956  48.08437347
H    18.61999893  14.72000027  49.59000015
H    17.68000031  16.02000046  44.93000031
H    19.98999977  15.92000008  44.33000183
H    22.13999939  15.01999950  44.73999786
H    21.21000099  14.68999958  48.94000244
H    13.02000046  16.10999870  49.01000214
H    23.81999969  14.44000053  46.44000244
H    23.15999985  13.32999992  47.60000229
S    12.20000076  17.29999924  51.02000427
C     9.42000008  17.35999870  51.68000031
C    10.69000053  17.00000000  52.06999969
C    11.02000046  16.56999969  53.36999893
C    10.01999950  16.55999947  54.27999878
C     8.71000004  16.92000008  54.02999878
C     7.73999977  16.86000061  54.99000168
C     6.43000031  17.29999924  54.73999786
C     6.09000015  17.75000000  53.44999695
C     7.07000017  17.77000046  52.48000336
C     8.38999939  17.29999924  52.68000031
C    12.41000080  16.39999962  53.55999756
C    13.17999935  16.70999908  52.42000198
C    14.56999969  16.86000061  52.38999939
C     4.65000010  18.09000015  53.09000015
H     4.26888418  17.42657471  52.31365204
H     9.19000053  17.82999992  50.72999954
H    10.22999954  16.18999863  55.28999710
H     7.96000004  16.46000099  55.97000122
H     5.65000010  16.97000122  55.41999817
H     6.85999966  18.20999908  51.51000214
H    15.11000061  17.23999977  51.52999878
H     4.01999998  18.00000000  53.97999573
H     4.59999990  19.10000038  52.67000198
S    15.64000034  15.62999916  55.96000290
C    18.25000000  15.21999931  55.31000137
C    17.02999878  15.73999977  54.97000122
C    16.69000053  16.25000000  53.69999695
C    17.71000099  16.48999977  52.80000305
C    19.02000046  16.06999969  53.11000061
C    20.05000114  16.15999985  52.18000031
C    21.32999802  15.64000034  52.41000366
C    21.68000031  15.25000000  53.75000000
C    20.62000084  15.06000042  54.62999725
C    19.32999992  15.42000008  54.36000061
C    15.29000092  16.48999977  53.54000092
C    14.56999969  16.17000008  54.69999695
C    13.17000008  16.06999969  54.68000031
C    23.02000046  14.92000008  54.15999985
H    23.43050385  15.51775169  54.97380447
H    18.42000008  14.78000069  56.29000092
H    17.54999924  16.90000153  51.81000137
H    19.75000000  16.43000031  51.17000198
H    22.04999924  15.62000084  51.59000015
H    20.76999855  14.42000008  55.50000000
H    12.63000011  15.93999958  55.61999893
H    23.78000069  15.01999950  53.37999725
H    22.96999931  13.86000061  54.45000076
