96

S    11.79999924  16.72000122  44.15000153
C     9.22000027  17.28000069  44.91000366
C    10.42000008  16.87000084  45.31999969
C    10.76000023  16.53000069  46.65999985
C     9.75000000  16.52000046  47.63999939
C     8.47000027  16.95000076  47.29999924
C     7.46999979  17.14999962  48.26000214
C     6.19000006  17.64000130  47.94000244
C     5.92999983  17.79999924  46.55000305
C     6.90000010  17.73999977  45.58000183
C     8.21000004  17.36999893  45.91999817
C    12.22000027  16.29999924  46.79999924
C    12.94000053  16.36999893  45.56000137
C    14.28999996  16.26000023  45.44000244
C     4.51999998  18.15000153  46.13999939
H     4.23613262  17.72056198  45.17921829
H     9.13000011  17.59000015  43.87000275
H    10.03000069  16.34000015  48.68000031
H     7.78999996  17.06999969  49.29999924
H     5.42999983  17.79999924  48.68999863
H     6.72999954  17.86000061  44.51000214
H    14.73999977  16.35000038  44.45000076
H     3.76999998  17.94999886  46.90999985
H     4.53999996  19.25000000  46.05999756
S    15.39000034  15.59999943  49.20000076
C    18.04000092  15.29999924  48.54000092
C    16.76000023  15.67000008  48.11999893
C    16.39999962  15.88999939  46.76000214
C    17.38999939  15.88999939  45.81999969
C    18.75000000  15.77000046  46.24000168
C    19.85000038  16.02000046  45.31000137
C    21.17000198  15.78999996  45.65000153
C    21.48999977  15.27999973  46.97000122
C    20.46999931  15.11000061  47.90000153
C    19.06999969  15.31000042  47.60000229
C    14.98999977  16.10999870  46.63000107
C    14.30999947  15.93999958  47.84000015
C    12.97000027  16.07999992  47.94000244
C    22.92000008  15.01999950  47.41000366
H    23.20266151  15.38963318  48.39568710
H    18.27000046  14.98000050  49.54999924
H    17.06999969  16.10000038  44.79999924
H    19.59000015  16.36000061  44.31000137
H    21.90000153  15.80999947  44.85000229
H    20.72999954  14.80999947  48.90999603
H    12.48000050  15.90000057  48.88999939
H    23.54000092  15.47000027  46.63000107
H    23.23999786  13.97999954  47.29999924
S    15.82999992  12.77999973  52.18999863
C    18.54999924  12.51000023  51.59000015
C    17.21999931  12.30000019  51.23000336
C    16.79999924  11.90000057  49.91000366
C    17.75000000  11.49000072  48.99000168
C    19.13999939  11.57999992  49.31999969
C    20.19000053  11.23999977  48.41999817
C    21.47999954  11.28999901  48.76999664
C    21.88999939  11.77999973  50.00999832
C    20.94000053  12.15000057  50.96000290
C    19.50000000  12.15999985  50.65000153
C    15.42000008  12.18999958  49.62999725
C    14.78000069  12.64000034  50.86000061
C    13.43999958  12.89999962  50.86999893
C    23.36000061  11.65999985  50.40999985
H    23.63541222  11.98007488  51.41488647
H    18.88000107  12.79000092  52.58999634
H    17.45000076  11.10999966  48.01000214
H    19.81999969  10.72000027  47.54000092
H    22.22999954  10.93999958  48.08000183
H    21.19999886  12.46999931  51.97000122
H    13.02000046  13.38999939  51.73999786
H    23.62999916  10.59000015  50.35999680
H    23.95999908  12.28999996  49.72999954
S    12.11999989  12.01000023  47.29000092
C     9.47000027  12.72999954  47.95999908
C    10.80000019  12.60000038  48.29000092
C    11.26000023  12.97000027  49.56999969
C    10.44000053  13.69999981  50.35999680
C     9.11000061  13.85000038  50.08999634
C     8.19999981  14.45000076  51.03000259
C     6.88000011  14.68000031  50.72999954
C     6.28999996  14.22999954  49.52000046
C     7.16000032  13.56999969  48.64999771
C     8.57999992  13.43000031  48.81999969
C    12.71000004  12.76999950  49.66999817
C    13.31999969  12.28000069  48.50000000
C    14.65999985  11.95000076  48.48999786
C     4.86999989  14.60000038  49.13999939
H     4.54494429  13.99322987  48.29485703
H     9.00000000  12.15999985  47.16999817
H    10.77999973  14.14999962  51.29000092
H     8.52999973  14.80999947  52.00000000
H     6.34000015  15.19999981  51.51000214
H     6.71000004  13.17000008  47.74000168
H    15.11999989  11.63000011  47.55000305
H     4.67999983  15.67000008  49.01000214
H     4.17000008  14.47000027  49.98000336
