96

S    11.80999947  16.97999954  44.22999954
C     9.19000053  17.15999985  45.05000305
C    10.44999981  16.69000053  45.26000214
C    10.80000019  16.23999977  46.56999969
C     9.89999962  16.31000137  47.57999802
C     8.56999969  16.73999977  47.42000198
C     7.50999975  16.75000000  48.41999817
C     6.25999975  17.22999954  48.13000107
C     5.93999958  17.64000130  46.81000137
C     6.86999989  17.50000000  45.86000061
C     8.23000050  17.12000084  46.06999969
C    12.25000000  16.15999985  46.73999786
C    12.89000034  16.35000038  45.50000000
C    14.22999954  16.25000000  45.48999786
C     4.53999996  18.09000015  46.44000244
H     4.14423323  17.46223259  45.64164352
H     9.01000023  17.69000053  44.12000275
H    10.05000019  15.88000107  48.56999969
H     7.69000006  16.39000130  49.41999817
H     5.45000029  17.18000031  48.86000061
H     6.74000025  17.79000092  44.81999969
H    14.65999985  16.07999992  44.51000214
H     3.96000004  18.05999947  47.36999893
H     4.53000021  19.18000031  46.29000092
S    15.39999962  15.60999966  49.20000076
C    18.07999992  15.14000034  48.30999756
C    16.76000023  15.52000046  48.06999969
C    16.38000107  15.84000015  46.70000076
C    17.38999939  15.95000076  45.70999908
C    18.77000046  15.69000053  46.00000000
C    19.78999901  15.75000000  44.94999695
C    21.05999947  15.15999985  45.15999603
C    21.35000038  14.68000031  46.50000000
C    20.42000008  14.85000038  47.50000000
C    19.05999947  15.17000008  47.29000092
C    14.93000031  16.11999893  46.65000153
C    14.26000023  16.01000023  47.88999939
C    12.89999962  15.98999977  47.93000031
C    22.72999954  14.22999954  46.91999817
H    22.99278450  14.68641376  47.87432098
H    18.43000031  15.03000069  49.34000015
H    17.17000008  16.18000031  44.66999817
H    19.45999908  16.04999924  43.95999908
H    21.80999947  14.98999977  44.38999939
H    20.72999954  14.57999992  48.50999832
H    12.25999928  15.88000107  48.80000305
H    23.45999908  14.47999954  46.13999939
H    22.73999977  13.12999916  46.88000107
S    11.85999966  17.20999908  51.03000259
C     9.22999954  17.35000038  51.65999985
C    10.48999977  17.10000038  52.02000046
C    10.88999939  16.81999969  53.39000320
C     9.90999985  16.59000015  54.31000137
C     8.48999977  16.84000015  54.02000046
C     7.40000010  16.70999908  54.87999725
C     6.14000034  16.95999908  54.43999863
C     5.84999990  17.53000069  53.16999817
C     6.84999990  17.64000130  52.29000092
C     8.21000004  17.28000069  52.62000275
C    12.30999947  16.77999878  53.56999969
C    13.01000023  16.92000008  52.35000229
C    14.37999916  16.94000053  52.31999969
C     4.46999979  18.13999939  52.88000107
H     3.93454647  17.56113052  52.12747192
H     9.03999996  17.78000069  50.68000031
H    10.26999950  16.27000046  55.27999878
H     7.55000019  16.45000076  55.93000031
H     5.31000042  16.86000061  55.13999939
H     6.69000053  18.15000153  51.33999634
H    15.03999901  17.26000023  51.52000046
H     3.94000006  18.13999939  53.83999634
H     4.61999989  19.19999886  52.63999939
S    15.52000046  15.78999996  55.87999725
C    18.15999985  15.67000008  55.22999573
C    16.90999985  15.93000031  54.79999924
C    16.55999947  16.34000015  53.48999786
C    17.56999969  16.40999985  52.55000305
C    18.90999985  15.93000031  52.83000183
C    19.95000076  15.84000015  51.88000107
C    21.14999962  15.36000061  52.19999695
C    21.37000084  14.98999977  53.52000427
C    20.39999962  14.93000031  54.50000000
C    19.19000053  15.53999996  54.20999908
C    15.06999969  16.52000046  53.36000061
C    14.44000053  16.31000137  54.56999969
C    13.04999924  16.42000008  54.72999954
C    22.70999908  14.44000053  53.94000244
H    23.14092636  14.92564678  54.81553268
H    18.32999992  15.17000008  56.18000031
H    17.47999954  16.75000000  51.52000046
H    19.65999985  15.97000027  50.84000015
H    21.96000099  15.18000031  51.50000000
H    20.52000046  14.50000000  55.48999786
H    12.48000050  16.10999870  55.59999847
H    23.38000107  14.44000053  53.08000183
H    22.63000107  13.38999939  54.26000214
