96

S    11.96000004  16.97999954  44.06999969
C     9.25000000  17.34000015  44.69999695
C    10.50000000  17.02999878  45.10000229
C    10.90000057  16.84000015  46.46999741
C     9.89000034  16.75000000  47.38999939
C     8.52000046  17.07999992  47.04000092
C     7.44999981  17.13999939  47.97999954
C     6.23000050  17.60000038  47.63000107
C     5.92999983  17.97000122  46.29000092
C     6.91999960  17.82999992  45.31999969
C     8.23999977  17.43999863  45.68000031
C    12.30000019  16.55999947  46.70999908
C    13.01000023  16.67000008  45.41999817
C    14.32000065  16.39000130  45.34999847
C     4.50000000  18.37000084  45.90999985
H     4.12948895  17.68386841  45.14839554
H     9.09000015  17.68000031  43.67000198
H    10.11000061  16.54000092  48.43000031
H     7.68000031  16.88999939  49.01000214
H     5.51000023  17.86000061  48.40000153
H     6.67999983  18.02000046  44.27000046
H    14.93999958  16.60000038  44.47999954
H     3.81000018  18.26000023  46.76000214
H     4.53000021  19.40999985  45.56000137
S    15.50000000  15.77999973  49.10999680
C    18.22999954  15.38000011  48.30999756
C    16.90000153  15.71000004  47.97999954
C    16.51000023  16.03999901  46.60999680
C    17.43999863  16.18000031  45.63000107
C    18.81000137  15.92000008  45.90999985
C    19.88999939  16.11999893  45.01999664
C    21.14000130  15.80000019  45.30000305
C    21.48999977  15.22999954  46.55000305
C    20.58000183  14.98999977  47.52999878
C    19.18000031  15.34999943  47.21000290
C    15.06000042  16.13000107  46.52000046
C    14.37000084  16.04999924  47.76000214
C    12.98999977  16.35000038  47.88999939
C    22.95000076  15.07999992  46.90000153
H    23.15769958  15.33783531  47.93850327
H    18.47999954  15.18000031  49.34999847
H    17.13999939  16.62999916  44.68999863
H    19.68000031  16.64999962  44.09000015
H    21.87999916  16.09000015  44.56999969
H    20.88999939  14.68999958  48.52000427
H    12.36999989  16.27000046  48.77999878
H    23.47999954  15.80000019  46.25999832
H    23.25000000  14.02999973  46.81999969
S    11.80999947  17.36999893  51.05999756
C     9.22999954  17.87999916  51.77999878
C    10.46000004  17.43999863  52.11000061
C    10.80000019  17.01000023  53.43999863
C     9.80000019  16.87000084  54.36999893
C     8.42000008  17.19000053  54.00000000
C     7.30999994  17.09000015  54.89999771
C     6.05000019  17.45000076  54.48999786
C     5.75999975  17.82999992  53.15000153
C     6.80000019  18.04999924  52.30999756
C     8.15999985  17.71000099  52.70000076
C    12.20000076  16.77999878  53.56999969
C    12.88000011  16.95000076  52.41000366
C    14.27999973  16.86000061  52.36000061
C     4.35999966  18.20000076  52.77999878
H     3.99333239  17.64320946  51.91765213
H     9.07999992  18.13999939  50.73999786
H     9.96000004  16.44000053  55.34999847
H     7.57000017  16.68000031  55.86999893
H     5.27999973  17.39999962  55.25000000
H     6.65000010  18.39999962  51.30000305
H    14.80000019  16.72999954  51.40999603
H     3.70000005  18.02000046  53.63999939
H     4.25000000  19.26000023  52.56000137
S    15.36000061  16.00000000  55.97999954
C    18.05999947  15.50000000  55.26000214
C    16.84999847  15.88999939  54.89999771
C    16.46999931  16.39000130  53.59000397
C    17.38000107  16.31000137  52.56999969
C    18.67000008  15.84000015  52.81999969
C    19.73999977  15.84000015  51.83000183
C    21.02000046  15.42000008  52.22999954
C    21.34000015  15.01999950  53.56999969
C    20.29000092  15.01000023  54.47000122
C    18.96999931  15.47000027  54.20000076
C    15.01999950  16.67000008  53.50000000
C    14.32999992  16.39999962  54.61999893
C    12.94000053  16.50000000  54.68999863
C    22.76000023  14.73000050  53.99000168
H    22.99610901  15.15652084  54.96490479
H    18.27999878  15.01999950  56.20999908
H    17.04000092  16.44000053  51.55000305
H    19.55999947  16.25000000  50.84000015
H    21.81999969  15.51000023  51.50000000
H    20.53999901  14.73000050  55.48999786
H    12.38999939  16.28999901  55.59999847
H    23.48999977  15.17000008  53.29999924
H    22.90999985  13.63999939  53.93000031
