96

S    12.50000000  16.70999908  44.05000305
C     9.85000038  16.87999916  44.81999969
C    11.10000038  16.56999969  45.11000061
C    11.40999985  16.00000000  46.38000107
C    10.40999985  15.76000023  47.34000397
C     9.06999969  16.13999939  47.02000046
C     7.92999983  15.98999977  47.87000275
C     6.67000008  16.54000092  47.57999802
C     6.43000031  17.06999969  46.27999878
C     7.50000000  17.22999954  45.47999954
C     8.82999992  16.73999977  45.77999878
C    12.89000034  15.80999947  46.53999710
C    13.57999992  16.21999931  45.34999847
C    14.94999981  16.23999977  45.27999878
C     5.05999994  17.65999985  45.98999786
H     4.63598061  17.18480492  45.10540771
H     9.64999962  17.32999992  43.85000229
H    10.65000057  15.77999973  48.39000320
H     8.19999981  15.71000004  48.88000107
H     5.92999983  16.54999924  48.36999893
H     7.32999992  17.64000130  44.47999954
H    15.44999981  16.57999992  44.38000107
H     4.46000004  17.46000099  46.88000107
H     5.07999992  18.76000023  45.90000153
S    16.02000046  14.73000050  48.88999939
C    18.73999977  14.80999947  48.36000061
C    17.46000099  15.19000053  48.00000000
C    17.11000061  15.72000027  46.68000031
C    18.13999939  15.84000015  45.76000214
C    19.51000023  15.38000011  46.10000229
C    20.48000145  15.26000023  45.04000092
C    21.68999863  14.70000076  45.30000305
C    21.97999954  14.29999924  46.70000076
C    21.09000015  14.47999954  47.65999603
C    19.78000069  14.85000038  47.36000061
C    15.67000008  15.84000015  46.43000031
C    15.01000023  15.32999992  47.55000305
C    13.67000008  15.22999954  47.55000305
C    23.31000137  13.78999901  47.15000153
H    23.64289474  14.19372272  48.10618591
H    18.88000107  14.45000076  49.38000107
H    17.93000031  16.15999985  44.73999786
H    20.13999939  15.54999924  44.05000305
H    22.42000198  14.60000038  44.51000214
H    21.42999840  14.34000015  48.68999863
H    13.20000076  14.77000046  48.41999817
H    23.97000122  13.94000053  46.29000092
H    23.25000000  12.69999981  47.23999786
S    16.10000038  12.34000015  52.23999786
C    18.68000031  12.02000046  51.43000031
C    17.34000015  11.84999943  51.18000031
C    16.80999947  11.38000011  49.93000031
C    17.61999893  10.98000050  48.99000168
C    19.02000046  11.06999969  49.22999954
C    19.96000099  10.51000023  48.26000214
C    21.30000114  10.44999981  48.52000427
C    21.83000183  10.95999908  49.75999832
C    20.96999931  11.56999969  50.65999985
C    19.57999992  11.57999992  50.38999939
C    15.32999992  11.56999969  49.89999771
C    14.80000019  12.06999969  51.09000397
C    13.48000050  12.42000008  51.19999695
C    23.26999855  10.73999977  50.07999802
H    23.48637962  11.01222038  51.11304092
H    18.90999985  12.53999901  52.36000061
H    17.35999870  10.80999947  47.95000076
H    19.47999954  10.15999985  47.35000229
H    21.87999916   9.98000050  47.74000168
H    21.35999870  11.77999973  51.65999985
H    13.12999916  12.81999969  52.15000153
H    23.51000023   9.68000031  49.92000198
H    23.92999840  11.32999992  49.41999817
S    11.87999916  11.46999931  47.70999908
C     9.28999996  12.13999939  48.47999954
C    10.60999966  11.97000027  48.77999878
C    11.17000008  12.50000000  50.00999832
C    10.36999893  13.14000034  50.93999863
C     9.01000023  13.20000076  50.65000153
C     8.09000015  13.76999950  51.63999939
C     6.71000004  14.04000092  51.36000061
C     6.17999983  13.63999939  50.11000061
C     7.03000021  12.90999985  49.25000000
C     8.38999939  12.69000053  49.41999817
C    12.63000011  12.18999958  50.14999771
C    13.14000034  11.61000061  48.92000198
C    14.51000023  11.36999989  48.75000000
C     4.79999971  14.11000061  49.68000031
H     4.55658913  13.73772526  48.68487930
H     8.85000038  11.87999916  47.51999664
H    10.72000027  13.43999958  51.91999817
H     8.63000011  14.25000000  52.45999908
H     6.10000038  14.63999939  52.02999878
H     6.65000010  12.60000038  48.27999878
H    15.01000023  11.33999920  47.78999710
H     4.65000010  15.19000053  49.86000061
H     4.07999992  13.68999958  50.38999939
