96

S    12.22000027  17.25000000  44.27999878
C     9.59999943  17.69000053  45.04000092
C    10.80000019  17.13999939  45.27999878
C    11.25000000  16.82999992  46.63000107
C    10.24000072  16.76000023  47.69000244
C     8.88000011  17.19000053  47.37999725
C     7.90999985  17.25000000  48.39000320
C     6.61999989  17.53000069  48.09000015
C     6.32999992  17.95999908  46.72999954
C     7.28999996  18.04000092  45.80999756
C     8.61999989  17.65999985  46.04999924
C    12.69999981  16.67000008  46.73999786
C    13.38000107  16.88999939  45.54000092
C    14.72000027  16.72000122  45.35999680
C     4.92999983  18.22000122  46.23000336
H     4.70205355  17.46263123  45.47998428
H     9.39000034  18.27999878  44.15999985
H    10.60999966  16.54999924  48.68999863
H     8.19000053  16.81999969  49.34999847
H     5.86999989  17.53000069  48.87000275
H     7.04999971  18.34000015  44.79000092
H    15.27999973  16.79000092  44.43000031
H     4.28999996  18.35000038  47.11000061
H     4.90000010  19.19000053  45.72999954
S    15.84000015  15.90000057  49.10999680
C    18.50000000  15.54999924  48.18999863
C    17.18000031  15.88000107  47.95999908
C    16.81999969  16.35000038  46.65000153
C    17.72999954  16.61000061  45.65999985
C    19.05999947  16.20000076  45.84000015
C    20.06999969  16.28000069  44.86000061
C    21.32999802  15.80000019  44.99000168
C    21.68000031  15.26999950  46.29000092
C    20.81000137  15.29000092  47.39999771
C    19.48999977  15.70000076  47.16999817
C    15.42000008  16.44000053  46.51000214
C    14.77000046  16.21999931  47.70999908
C    13.43999958  16.42000008  47.85999680
C    23.12000084  14.80999947  46.53999710
H    23.30686951  14.85844707  47.61276627
H    18.82999992  15.24000072  49.18000031
H    17.48999977  17.02999878  44.68000031
H    19.64999962  16.75000000  43.96999741
H    22.06999969  16.03999901  44.22999954
H    21.14999962  15.05000019  48.40999985
H    12.90999985  16.23999977  48.79000092
H    23.84000015  15.48999977  46.09000397
H    23.29999924  13.81000042  46.11999893
S    16.13000107  13.30000019  52.23999786
C    18.78999901  12.84999943  51.63000107
C    17.48999977  12.89000034  51.19999695
C    17.07999992  12.63000011  49.82999802
C    18.02999878  12.15999985  48.92000198
C    19.34000015  11.97000027  49.34999847
C    20.27000046  11.43000031  48.48999786
C    21.55999947  11.21000099  48.87000275
C    21.97999954  11.46000004  50.18000031
C    21.11000061  11.89000034  51.12999725
C    19.73999977  12.32999992  50.68000031
C    15.64000034  12.75000000  49.68999863
C    15.01000023  13.15999985  50.89000320
C    13.71000099  13.67000008  50.87999725
C    23.38999939  11.00000000  50.56999969
H    23.69836807  11.33705330  51.55964661
H    19.04999924  12.94999981  52.68000031
H    17.64000130  11.72000027  48.01000214
H    19.90999985  11.07999992  47.51999664
H    22.27000046  10.70000076  48.23999786
H    21.31999969  11.98999977  52.18999863
H    13.17999935  14.14000034  51.70999908
H    23.40999985   9.89999962  50.52999878
H    24.03000069  11.33999920  49.75000000
S    12.36999989  12.50000000  47.28000259
C     9.59999943  13.14000034  47.94000244
C    10.98999977  13.12000084  48.27000046
C    11.51999950  13.60000038  49.51000214
C    10.65000057  14.13000011  50.40999985
C     9.26999950  14.22999954  50.14999771
C     8.23999977  14.63000107  51.11000061
C     6.83000040  14.70000076  50.86000061
C     6.37000036  14.21000004  49.59999847
C     7.26000023  13.78000069  48.67000198
C     8.71000004  13.81000042  48.87000275
C    12.94000053  13.34000015  49.77000427
C    13.53999996  12.75000000  48.62999725
C    14.88999939  12.48999977  48.50999832
C     4.86999989  14.27000046  49.34000015
H     4.58588600  13.79647636  48.40023804
H     9.30000019  12.51999950  47.09000015
H    11.05000019  14.37000084  51.39999771
H     8.71999931  14.85000038  52.05999756
H     6.11000013  15.06999969  51.58000183
H     6.97000027  13.40999985  47.69000244
H    15.40999985  12.02999973  47.68000031
H     4.75000000  15.36000061  49.27000046
H     4.28999996  13.86000061  50.18000031
