96

S    12.32999992  16.77000046  43.86000061
C     9.70000076  17.27000046  44.62999725
C    10.95999908  16.79000092  44.95999908
C    11.35000038  16.46999931  46.30000305
C    10.40999985  16.42000008  47.30999756
C     9.06999969  16.75000000  46.97999954
C     8.07999992  16.56999969  47.95000076
C     6.78999996  16.86000061  47.70999908
C     6.40999985  17.28999901  46.38999939
C     7.32999992  17.59000015  45.40999985
C     8.71999931  17.20999908  45.68999863
C    12.81999969  16.38000107  46.49000168
C    13.45999908  16.51000023  45.25000000
C    14.84000015  16.46000099  45.12000275
C     4.90000010  17.52000046  46.07999802
H     4.67716074  17.26121902  45.04487610
H     9.48000050  17.59000015  43.61000061
H    10.67999935  15.97000027  48.26000214
H     8.43000031  16.03000069  48.82999802
H     6.06999969  16.59000015  48.47000122
H     7.02000046  17.94999886  44.43000031
H    15.39000034  16.53000069  44.19000244
H     4.28000021  16.88999939  46.73999786
H     4.72000027  18.55999947  46.35000229
S    15.80000019  15.03000069  48.76999664
C    18.43000031  14.52000046  48.11000061
C    17.20000076  14.96999931  47.67000198
C    16.97000122  15.64000034  46.45000076
C    18.02999878  15.76000023  45.52999878
C    19.36000061  15.32999992  45.90000153
C    20.42000008  15.59000015  45.04000092
C    21.70000076  15.19000053  45.38000107
C    21.93000031  14.42999935  46.59999847
C    20.94000053  14.37999916  47.56000137
C    19.59000015  14.73000050  47.22000122
C    15.60999966  16.13999939  46.29000092
C    14.88999939  15.88000107  47.50000000
C    13.52000046  15.98000050  47.57999802
C    23.38000107  13.96999931  46.97000122
H    23.75658989  14.56385136  47.80284119
H    18.45999908  13.99000072  49.06999969
H    17.97000122  16.28000069  44.58000183
H    20.30999947  16.13999939  44.09999847
H    22.52000046  15.36000061  44.68999863
H    21.15999985  14.06999969  48.57999802
H    13.04999924  15.44000053  48.40000153
H    23.94000053  14.06999969  46.03000259
H    23.29999924  12.90999985  47.23999786
S    12.10000038  17.10000038  50.51000214
C     9.36999989  17.43999863  51.12999725
C    10.64000034  17.02999878  51.52000046
C    10.93999958  16.76000023  52.85999680
C     9.96999931  16.87000084  53.80000305
C     8.63000011  17.20999908  53.44999695
C     7.68000031  17.39999962  54.47999954
C     6.43000031  17.88999939  54.19000244
C     6.10000038  18.13999939  52.84999847
C     7.00000000  17.92000008  51.81000137
C     8.32999992  17.46999931  52.04999924
C    12.39999962  16.56999969  53.04999924
C    13.15000057  16.84000015  51.90000153
C    14.52999973  16.70999908  51.93000031
C     4.65000010  18.35000038  52.52999878
H     4.34034204  17.89958954  51.58694839
H     9.18000031  17.78000069  50.12000275
H    10.19000053  16.90000153  54.86999893
H     7.86000013  17.12000084  55.51000214
H     5.65000010  17.79999924  54.93999863
H     6.85999966  18.31999969  50.79999924
H    15.07999992  16.87999916  51.00000000
H     4.00000000  18.05999947  53.36000061
H     4.44999981  19.43000031  52.55000305
S    15.42000008  15.70000076  55.63999939
C    18.13999939  15.21999931  55.12000275
C    16.90000153  15.60999966  54.68999863
C    16.61999893  16.13999939  53.34999847
C    17.61999893  16.11999893  52.36999893
C    18.92000008  15.69000053  52.78999710
C    19.95000076  15.51000023  51.81999969
C    21.21999931  15.18000031  52.15999985
C    21.45999908  14.78999996  53.47999954
C    20.51000214  14.85999966  54.45000076
C    19.17000008  15.24000072  54.13999939
C    15.21999931  16.32999992  53.09999847
C    14.46000004  16.07999992  54.26000214
C    13.10999966  16.21000099  54.29000092
C    22.79999924  14.37000084  53.88000107
H    23.20516205  14.90310955  54.74008179
H    18.19000053  14.78000069  56.11000061
H    17.36999893  16.38000107  51.33999634
H    19.71999931  15.72999954  50.77999878
H    22.06999969  15.18000031  51.47999573
H    20.69999886  14.53999996  55.47000122
H    12.48999977  15.90999985  55.13000107
H    23.45000076  14.42000008  53.00000000
H    22.79000092  13.30000019  54.12000275
