96

S    12.51999950  16.36999893  44.08000183
C     9.81999969  16.73999977  44.84000397
C    11.11999989  16.42000008  45.24000168
C    11.52999973  16.13000107  46.60999680
C    10.55999947  16.00000000  47.56000137
C     9.21000004  16.38000107  47.18000031
C     8.09000015  16.39000130  48.11999893
C     6.81999969  16.88999939  47.81000137
C     6.48999977  17.20999908  46.44000244
C     7.48000050  17.14999962  45.52999878
C     8.80999947  16.68000031  45.79999924
C    12.98999977  16.18000031  46.69000244
C    13.64999962  16.17000008  45.43000031
C    15.01999950  16.14999962  45.34000015
C     5.03000021  17.51000023  46.07999802
H     4.66965294  16.91404152  45.24149704
H     9.59999943  17.12000084  43.83999634
H    10.76000023  15.71000004  48.59000397
H     8.38999939  16.17000008  49.15000153
H     6.11000013  16.87000084  48.63999939
H     7.25000000  17.46999931  44.52000046
H    15.47999954  16.09000015  44.36000061
H     4.32000017  17.35999870  46.90999985
H     5.07000017  18.57999992  45.84000015
S    16.18000031  15.65000057  49.13000107
C    18.85000038  15.19999981  48.34999847
C    17.54999924  15.59000015  48.08000183
C    17.21999931  15.93000031  46.72000122
C    18.15000153  15.90999985  45.75000000
C    19.44000053  15.46000004  45.97999954
C    20.45000076  15.34999943  44.93000031
C    21.81999969  15.13000011  45.22999573
C    22.14999962  14.84000015  46.62000275
C    21.18000031  14.91000080  47.57999802
C    19.81999969  15.21999931  47.36000061
C    15.80999947  16.15999985  46.56000137
C    15.18000031  16.10000038  47.77999878
C    13.81000042  16.03999901  47.87000275
C    23.57999992  14.40999985  47.00000000
H    23.85836792  14.85253239  47.95643997
H    19.04999924  14.68000031  49.27999878
H    17.76000023  16.15999985  44.77000427
H    20.10000038  15.65999985  43.95000076
H    22.57999802  15.15999985  44.45000076
H    21.42999840  14.65999985  48.61000061
H    13.35999966  15.88000107  48.83999634
H    24.38999939  14.56999969  46.27999878
H    23.50000000  13.31999969  47.08000183
S    15.98000050  12.98999977  51.98999786
C    18.61999893  12.25999928  51.31999969
C    17.32999992  12.46999931  50.93000031
C    16.80999947  12.22000027  49.61999893
C    17.76000023  11.77999973  48.63999939
C    19.06999969  11.57999992  48.94000244
C    19.95000076  10.84000015  48.13999939
C    21.24000168  10.67000008  48.54999924
C    21.73999977  11.25000000  49.79999924
C    20.82999992  11.78999996  50.58000183
C    19.51000023  11.85999966  50.27000046
C    15.36000061  12.38999939  49.56999969
C    14.78999996  12.81999969  50.79000092
C    13.43999958  13.09999943  50.86999893
C    23.19999886  11.16000080  50.15999603
H    23.53084373  11.69222641  51.05183411
H    18.90999985  12.39999962  52.35000229
H    17.39999962  11.26999950  47.74000168
H    19.70999908  10.48999977  47.14000320
H    21.83000183   9.98999977  47.95000076
H    21.01000023  12.15999985  51.59000015
H    13.03999996  13.09000015  51.88000107
H    23.57000160  10.14000034  50.13000107
H    23.68000031  11.63000011  49.29000092
S    12.01000023  12.23999977  47.22000122
C     9.43000031  12.55000019  48.04000092
C    10.72999954  12.65999985  48.34999847
C    11.23999977  13.17999935  49.58000183
C    10.31999969  13.43999958  50.58000183
C     8.93999958  13.43999958  50.27999878
C     8.01000023  13.96999931  51.18999863
C     6.69000053  14.07999992  50.84000015
C     6.28999996  13.63999939  49.59999847
C     7.17000008  13.12000084  48.68000031
C     8.50000000  13.02999973  49.00000000
C    12.64999962  13.00000000  49.72999954
C    13.21000004  12.42000008  48.50999832
C    14.53999996  11.98999977  48.52000427
C     4.92000008  14.04000092  49.15000153
H     4.62835693  13.59897900  48.19682693
H     9.19000053  12.09000015  47.09000015
H    10.62000084  13.55000019  51.62000275
H     8.46000004  14.37000084  52.09000015
H     6.01000023  14.70999908  51.40999603
H     6.78999996  12.92000008  47.69000244
H    14.94999981  11.36999989  47.72999573
H     4.94999981  15.13000011  49.05000305
H     4.19000006  13.78000069  49.92000198
