96

S    12.20000076  16.28000069  44.06999969
C     9.48000050  16.45000076  44.65000153
C    10.72999954  16.28999901  45.07999802
C    11.05999947  16.20000076  46.45999908
C    10.06000042  16.32999992  47.38999939
C     8.78000069  16.52000046  47.00000000
C     7.75000000  16.77000046  47.95000076
C     6.43000031  16.90999985  47.62000275
C     6.01999998  16.88999939  46.24000168
C     7.03999996  16.86000061  45.26000214
C     8.38999939  16.62999916  45.56999969
C    12.46000099  15.90000057  46.68000031
C    13.20000076  15.92000008  45.50000000
C    14.60000038  15.90999985  45.45999908
C     4.55999994  17.11000061  45.91999817
H     4.24168491  16.83509254  44.91441345
H     9.23999977  16.45000076  43.59000397
H    10.39999962  16.61999893  48.37999725
H     8.05000019  16.97000122  48.96999741
H     5.64000034  16.94000053  48.36999893
H     6.80999994  16.87000084  44.20000076
H    15.11000061  15.97000027  44.51000214
H     3.88999987  16.57999992  46.60999680
H     4.39000034  18.19000053  46.02000427
S    15.67999935  15.57999992  49.27999878
C    18.34000015  14.78000069  48.59000397
C    17.04000092  15.18000031  48.20999908
C    16.67000008  15.39999962  46.81999969
C    17.71000099  15.36999893  45.86000061
C    19.00000000  15.13000011  46.31000137
C    20.06999969  15.29999924  45.40999985
C    21.30000114  14.80000019  45.65000153
C    21.63999939  14.26000023  46.95999908
C    20.62999916  14.23999977  47.91999817
C    19.34000015  14.75000000  47.64999771
C    15.26999950  15.57999992  46.65999985
C    14.53999996  15.73999977  47.84999847
C    13.15000057  15.82999992  47.84000015
C    23.00000000  13.71999931  47.29000092
H    23.40519524  14.25568199  48.14846420
H    18.54999924  14.47999954  49.61000061
H    17.54999924  15.53999996  44.79999924
H    19.86999893  15.71000004  44.43000031
H    22.11999893  14.72000027  44.94999695
H    20.76000023  13.92000008  48.95000076
H    12.55000019  15.90000057  48.75000000
H    23.71999931  13.88000011  46.47999573
H    22.85000038  12.64999962  47.47000122
S    16.06999969  12.50000000  52.54000092
C    18.77000046  11.95000076  51.81000137
C    17.45000076  12.06999969  51.47999573
C    16.95999908  11.89000034  50.18000031
C    17.86999893  11.46000004  49.18000031
C    19.20999908  11.23000050  49.48999786
C    20.12000084  10.88000107  48.50000000
C    21.42000008  10.59999943  48.83999634
C    21.97999954  10.85999966  50.14999771
C    21.09000015  11.33999920  51.13999939
C    19.71999931  11.46000004  50.86000061
C    15.67000008  12.23999977  50.00000000
C    14.98000050  12.61999989  51.19999695
C    13.61999989  13.01000023  51.20999908
C    23.44000053  10.59999943  50.34999847
H    23.71117592  10.86422443  51.37212753
H    19.09000015  12.35000038  52.77000046
H    17.45000076  11.21999931  48.20000076
H    19.81999969  10.72999954  47.47000122
H    22.00000000  10.14999962  48.04000092
H    21.38000107  11.52999973  52.16999817
H    13.10999966  13.35000038  52.09999847
H    23.59999847   9.51000023  50.27000046
H    24.04000092  11.00999928  49.52999878
S    12.46999931  12.09000015  47.48000336
C     9.75000000  12.79999924  48.09000015
C    11.05999947  12.68000031  48.46000290
C    11.50000000  13.05999947  49.79999924
C    10.51000023  13.52000046  50.70000076
C     9.17000008  13.63999939  50.28999710
C     8.26000023  14.07999992  51.30000305
C     6.94999981  13.96999931  51.07999802
C     6.47000027  13.66000080  49.79000092
C     7.34000015  13.35000038  48.76999664
C     8.76000023  13.21000004  49.00000000
C    12.89999962  12.88000011  50.01999664
C    13.55999947  12.50000000  48.82999802
C    14.91000080  12.17000008  48.83999634
C     4.96000004  13.67000008  49.54999924
H     4.76160860  13.60623169  48.48010635
H     9.40999985  12.63000011  47.06999969
H    10.73999977  13.81000042  51.72000122
H     8.73999977  14.29999924  52.25000000
H     6.37000036  14.11999893  51.98999786
H     6.98000002  13.07999992  47.77999878
H    15.39000034  11.84999943  47.91999817
H     4.53999996  14.63999939  49.86000061
H     4.33999968  12.96000004  50.11000061
