96

S    12.57999992  17.43000031  44.29000092
C     9.85999966  17.85000038  45.00999832
C    11.13999939  17.36999893  45.28999710
C    11.46000004  16.84999847  46.58000183
C    10.46000004  16.69999886  47.45999908
C     9.15000057  17.09000015  47.25000000
C     8.10999966  16.79999924  48.18999863
C     6.81999969  17.13999939  47.95999908
C     6.48999977  17.69000053  46.70000076
C     7.44999981  18.00000000  45.70999908
C     8.82999992  17.72999954  45.98999786
C    12.88000011  16.62999916  46.83000183
C    13.60000038  16.95000076  45.61000061
C    14.96999931  17.05000114  45.63000107
C     5.03999996  17.97000122  46.31000137
H     4.70988274  17.31679153  45.50226593
H     9.63000011  18.04000092  43.96999741
H    10.67999935  15.98999977  48.25000000
H     8.48999977  16.26000023  49.06000137
H     6.02999973  17.07999992  48.69999695
H     7.16000032  18.43000031  44.75000000
H    15.52000046  17.34000015  44.72999954
H     4.30999994  17.98999977  47.11999893
H     5.07999992  19.02000046  45.97999954
S    15.93000031  15.57999992  49.25000000
C    18.59000015  15.15999985  48.60000229
C    17.40999985  15.81999969  48.36000061
C    17.06999969  16.35000038  47.08000183
C    17.98999977  16.29999924  46.04999924
C    19.30999947  15.78999996  46.35000229
C    20.36999893  15.82999992  45.38999939
C    21.61999893  15.31999969  45.72000122
C    21.84000015  14.73000050  47.01000214
C    20.82999992  14.65000057  47.90999985
C    19.61000061  15.18000031  47.62000275
C    15.65000057  16.69000053  46.81999969
C    14.89999962  16.22999954  47.97000122
C    13.55999947  16.35000038  48.04000092
C    23.23999786  14.27000046  47.58999634
H    23.71965599  14.98601055  48.25734711
H    18.78000069  14.61999989  49.52000046
H    17.88999939  16.67000008  45.04000092
H    20.10999870  16.32999992  44.45999908
H    22.44999886  15.26000023  45.01999664
H    21.05999947  14.47000027  48.95000076
H    12.97999954  16.14999962  48.93000031
H    23.80000114  14.21000004  46.63999939
H    23.19000053  13.27000046  48.02999878
S    11.85999966  17.63000107  51.02000427
C     9.19000053  17.95999908  51.84000015
C    10.47999954  17.56999969  52.09000015
C    10.84000015  16.95000076  53.34999847
C     9.89000034  16.69000053  54.34000015
C     8.56000042  17.10000038  54.05000305
C     7.49000025  16.90999985  54.98000336
C     6.19000006  17.11000061  54.64000320
C     5.88999987  17.71999931  53.40999985
C     6.90999985  18.06999969  52.55000305
C     8.19000053  17.69000053  52.77000046
C    12.23999977  16.55999947  53.37999725
C    12.94000053  16.88999939  52.25000000
C    14.34000015  16.77000046  52.08000183
C     4.44999981  18.01000023  53.01000214
H     4.08751011  17.37742043  52.19972992
H     9.02000046  18.63999939  51.00999832
H    10.11999989  16.28999901  55.33000183
H     7.71000004  16.43000031  55.93000031
H     5.33999968  16.87999916  55.27000046
H     6.57999992  18.56999969  51.63999939
H    14.80999947  17.18000031  51.18999863
H     3.81999993  18.06999969  53.90999603
H     4.59000015  19.05999947  52.74000168
S    15.50000000  15.44999981  55.59999847
C    18.19000053  15.27999973  54.93000031
C    16.87999916  15.55999947  54.52999878
C    16.51000023  16.07999992  53.26000214
C    17.56999969  16.32999992  52.37999725
C    18.92000008  15.92000008  52.72999573
C    20.00000000  15.97000027  51.73999786
C    21.25000000  15.52000046  52.11000061
C    21.51000023  15.01000023  53.36999893
C    20.59000015  15.10000038  54.33000183
C    19.25000000  15.52000046  54.05000305
C    15.01000023  16.26000023  53.22000122
C    14.37000084  15.97000027  54.36000061
C    12.98999977  16.05999947  54.43999863
C    22.93000031  14.59000015  53.79000092
H    23.17465782  15.12824535  54.70571518
H    18.46999931  14.68999958  55.79999924
H    17.34000015  16.90000153  51.47999573
H    19.85000038  16.36999893  50.73999786
H    22.06000137  15.59999943  51.38999939
H    20.81000137  14.80999947  55.35999680
H    12.38999939  15.77000046  55.28999710
H    23.61999893  14.89999962  53.00000000
H    22.81999969  13.50000000  53.93000031
