96

S    12.11999989  17.34000015  43.86000061
C     9.46000004  17.81999969  44.65000153
C    10.71000004  17.31999969  44.93000031
C    11.03999996  16.69999886  46.24000168
C     9.98000050  16.45000076  47.14000320
C     8.60000038  16.92000008  46.79999924
C     7.60999966  16.80999947  47.77999878
C     6.37000036  17.39999962  47.54000092
C     6.10000038  18.05999947  46.31000137
C     7.07000017  18.20000076  45.37000275
C     8.38999939  17.61000061  45.59000015
C    12.46000099  16.51000023  46.38000107
C    13.17000008  16.69999886  45.15999603
C    14.55999947  16.46999931  45.14999771
C     4.67000008  18.30000114  45.90000153
H     4.43673849  17.72744942  45.00229645
H     9.30999947  18.20999908  43.63999939
H    10.21000004  16.02000046  48.11000061
H     7.79999971  16.20000076  48.67000198
H     5.51000023  17.18000031  48.15999985
H     6.94000006  18.81999969  44.48999786
H    15.18000031  16.75000000  44.31000137
H     4.07000017  17.88999939  46.72000122
H     4.51000023  19.38999939  45.84999847
S    15.48999977  15.19000053  48.82999802
C    18.23999977  14.88000011  48.20999908
C    16.95000076  15.19999981  47.78999710
C    16.70999908  15.72000027  46.47999573
C    17.72999954  15.72999954  45.51000214
C    18.96000099  15.24000072  45.87999725
C    19.97999954  15.31000042  44.93999863
C    21.25999832  15.11000061  45.33000183
C    21.61000061  14.73999977  46.63000107
C    20.62000084  14.63000107  47.61000061
C    19.29000092  14.92000008  47.23999786
C    15.22999954  16.05999947  46.32999802
C    14.51000023  15.85000038  47.51999664
C    13.12000084  16.05999947  47.52999878
C    23.03999901  14.45000076  46.93999863
H    23.32266045  14.81963253  47.92568207
H    18.39999962  14.45000076  49.19000244
H    17.56999969  16.21999931  44.55999756
H    19.73999977  15.90999985  44.06999969
H    22.04999924  15.29999924  44.61000061
H    20.86999893  14.42999935  48.64999771
H    12.56000042  15.77000046  48.41999817
H    23.81000137  14.68999958  46.19999695
H    23.09999847  13.35999966  47.04000092
S    11.52999973  17.06999969  50.70999908
C     8.89999962  17.34000015  51.52999878
C    10.15999985  16.93000031  51.79000092
C    10.51000023  16.50000000  53.13999939
C     9.48999977  16.47999954  54.05000305
C     8.21000004  16.94000053  53.79000092
C     7.13999987  16.84999847  54.77000427
C     5.86000013  17.38000107  54.51000214
C     5.66999960  17.94999886  53.18999863
C     6.61999989  17.88999939  52.25999832
C     7.85000038  17.35000038  52.50999832
C    12.00000000  16.39999962  53.23999786
C    12.74000072  16.64999962  52.04999924
C    14.13000011  16.73999977  52.02999878
C     4.30000019  18.50000000  52.76000214
H     3.87529826  17.88418388  51.96722412
H     8.65999985  17.80999947  50.58000183
H     9.72000027  16.10000038  55.04000092
H     7.42000008  16.35000038  55.68999863
H     4.97000027  17.20999908  55.11000061
H     6.44000006  18.22999954  51.24000168
H    14.60000038  16.77000046  51.04000092
H     3.65000010  18.64999962  53.62999725
H     4.53999996  19.52000046  52.43000031
S    15.25000000  16.18999863  55.79999924
C    17.86000061  15.71000004  54.99000168
C    16.61000061  16.04999924  54.68999863
C    16.29999924  16.42000008  53.36000061
C    17.20999908  16.31000137  52.31999969
C    18.56999969  16.06999969  52.65999603
C    19.68000031  16.10999870  51.75000000
C    20.95000076  15.72999954  52.09999847
C    21.21999931  15.44000053  53.40000153
C    20.20000076  15.50000000  54.34999847
C    18.90999985  15.69000053  53.99000168
C    14.85999966  16.56999969  53.18999863
C    14.18000031  16.43000031  54.40000153
C    12.76999950  16.21999931  54.47000122
C    22.56000137  14.85999966  53.75999832
H    22.78236580  15.24017334  54.75705719
H    18.22999954  15.47999954  55.98999786
H    16.87999916  16.27000046  51.29000092
H    19.50000000  16.47999954  50.75000000
H    21.77000046  15.57000065  51.40999603
H    20.38999939  15.17000008  55.37000275
H    12.34000015  15.85999966  55.40000153
H    23.12999916  15.10000038  52.84999847
H    22.37999916  13.78000069  53.83999634
