96

S    12.05000019  16.44000053  44.10999680
C     9.42000008  17.26000023  44.80999756
C    10.67000008  16.80999947  45.18000031
C    10.98999977  16.53000069  46.58000183
C     9.98999977  16.64999962  47.50000000
C     8.69999981  17.14999962  47.12999725
C     7.59999990  17.27000046  48.06999969
C     6.35999966  17.70000076  47.70000076
C     6.12999964  18.02000046  46.30000305
C     7.14999962  17.93000031  45.40000153
C     8.42000008  17.46999931  45.77999878
C    12.43000031  16.09000015  46.75000000
C    13.09000015  16.10999870  45.50000000
C    14.48999977  16.28000069  45.40000153
C     4.82999992  18.48999977  45.84999847
H     4.44362736  17.90692902  45.01403046
H     9.22999954  17.53999901  43.77999878
H    10.14999962  16.38000107  48.54000092
H     7.69000006  16.81999969  49.05000305
H     5.52999973  17.68000031  48.40000153
H     7.05999947  18.13999939  44.33000183
H    14.91000080  16.61999893  44.45999908
H     4.23000002  18.29000092  46.75000000
H     4.72000027  19.55999947  45.68000031
S    15.67999935  15.65000057  49.06000137
C    18.26000023  15.27999973  48.34999847
C    17.05000114  15.69000053  47.93000031
C    16.63999939  15.95000076  46.59999847
C    17.56000137  15.98000050  45.59999847
C    18.88000107  15.52000046  45.89000320
C    19.93000031  15.55999947  44.92000198
C    21.27000046  15.14000034  45.24000168
C    21.55999947  14.78000069  46.59999847
C    20.55000114  14.80000019  47.56000137
C    19.19000053  15.17000008  47.22999954
C    15.21000004  16.05999947  46.52000046
C    14.55000019  15.98999977  47.76000214
C    13.22000027  15.98999977  47.90000153
C    22.98000145  14.51000023  47.02000046
H    23.19927406  15.04049778  47.94660187
H    18.54999924  15.07999992  49.38000107
H    17.42000008  16.43000031  44.61999893
H    19.79999924  15.88000107  43.88999939
H    22.06999969  15.18000031  44.51000214
H    20.76999855  14.39000034  48.54000092
H    12.79999924  16.09000015  48.89999771
H    23.74000168  14.72000027  46.25000000
H    23.02999878  13.43000031  47.22000122
S    15.92000008  13.19000053  52.36000061
C    18.53999901  12.58999920  51.51000214
C    17.18000031  12.61999989  51.25000000
C    16.68000031  12.32999992  49.95999908
C    17.47999954  11.77000046  48.99000168
C    18.84000015  11.67000008  49.16999817
C    19.76000023  11.13000011  48.27000046
C    21.07000160  11.19999981  48.48999786
C    21.61999893  11.64999962  49.65000153
C    20.79000092  12.10999966  50.61000061
C    19.36000061  12.13999939  50.47000122
C    15.27999973  12.44999981  49.79000092
C    14.75999928  13.00000000  51.00999832
C    13.40999985  13.38999939  50.97999954
C    23.09999847  11.46000004  49.93999863
H    23.48856735  11.94571018  50.83509827
H    19.00000000  12.89000034  52.44999695
H    16.98999977  11.31999969  48.11999893
H    19.40000153  10.72000027  47.32999802
H    21.73999977  10.86999989  47.70000076
H    21.24000168  12.50000000  51.52000046
H    13.09999943  14.02999973  51.81000137
H    23.36000061  10.39999962  49.97000122
H    23.68999863  11.79999924  49.06999969
S    11.92000008  12.05999947  47.56000137
C     9.28999996  12.76000023  48.27000046
C    10.64000034  12.67000008  48.67000198
C    11.09000015  13.14000034  49.89999771
C    10.21999931  13.55999947  50.84999847
C     8.89999962  13.78999901  50.47999954
C     7.96999979  14.44000053  51.38999939
C     6.69000053  14.67000008  50.97000122
C     6.21000004  14.17000008  49.72000122
C     7.03000021  13.60000038  48.75999832
C     8.38999939  13.40999985  49.13999939
C    12.57999992  13.02000046  49.86000061
C    13.12000084  12.51000023  48.75999832
C    14.47999954  12.18000031  48.68000031
C     4.77999973  14.42000008  49.29999924
H     4.64088631  14.27393055  48.22882462
H     8.96000004  12.53999901  47.25999832
H    10.64000034  13.73999977  51.83000183
H     8.38000011  14.96000099  52.25000000
H     6.11999989  15.26000023  51.68000031
H     6.71999979  13.31999969  47.75000000
H    14.85000038  11.80999947  47.72999573
H     4.59999990  15.46000004  49.59999847
H     4.13000011  13.73999977  49.86999893
