96

S    12.35000038  16.80999947  44.08000183
C     9.71000004  17.15999985  44.79999924
C    10.92000008  16.63999939  45.12000275
C    11.31000042  16.31000137  46.46999741
C    10.32999992  16.10999870  47.38999939
C     9.00000000  16.39000130  47.09999847
C     8.05000019  16.38000107  48.15000153
C     6.84000015  16.94000053  47.94000244
C     6.51000023  17.51000023  46.66999817
C     7.40999985  17.54999924  45.65999985
C     8.69999981  17.05000114  45.80999756
C    12.72999954  16.31000137  46.63999939
C    13.43999958  16.60000038  45.40999985
C    14.80000019  16.69000053  45.31000137
C     5.13999987  17.94000053  46.36000061
H     4.69639587  17.34148788  45.56432724
H     9.51000023  17.65999985  43.86000061
H    10.71000004  15.90000057  48.39000320
H     8.34000015  16.11999893  49.16999817
H     6.12999964  17.13999939  48.74000168
H     7.11999989  18.05999947  44.73999786
H    15.26000023  16.82999992  44.34000015
H     4.61999989  17.89999962  47.32999802
H     5.32999992  18.96999931  46.04000092
S    15.92000008  15.43000031  48.95000076
C    18.55999947  15.24000072  48.22999954
C    17.29999924  15.52999973  47.88000107
C    17.00000000  16.09000015  46.63000107
C    17.97999954  16.14999962  45.59999847
C    19.29999924  15.90000057  45.90000153
C    20.36999893  16.07999992  44.99000168
C    21.60000038  15.65000057  45.33000183
C    21.90999985  15.07999992  46.55000305
C    20.92000008  14.85999966  47.48000336
C    19.60000038  15.34000015  47.25999832
C    15.55999947  16.34000015  46.45999908
C    14.88000011  16.00000000  47.65999603
C    13.45000076  16.00000000  47.71999741
C    23.32999992  14.68000031  46.95999908
H    23.71458244  15.38999844  47.69218445
H    18.75000000  14.73000050  49.16999817
H    17.64000130  16.47999954  44.61999893
H    20.02000046  16.42000008  44.02000046
H    22.44999886  15.70000076  44.65999985
H    21.04000092  14.23999977  48.36000061
H    13.05999947  15.62000084  48.66000366
H    23.85999870  14.72000027  46.00000000
H    23.38999939  13.63000011  47.27000427
S    15.95000076  12.89000034  52.25000000
C    18.60000038  12.25000000  51.51000214
C    17.20999908  12.25000000  51.18000031
C    16.72000122  11.96000004  49.86999893
C    17.61000061  11.57999992  48.89999771
C    19.01000023  11.49000072  49.12000275
C    19.93000031  11.05999947  48.11999893
C    21.28000069  10.90000057  48.46000290
C    21.70999908  11.38000011  49.75999832
C    20.85000038  11.75000000  50.79000092
C    19.44000053  11.82999992  50.45000076
C    15.31999969  12.23000050  49.79000092
C    14.73999977  12.71999931  50.98999786
C    13.43000031  13.04999924  51.06999969
C    23.16999817  11.10000038  50.22999573
H    23.45063210  11.49879551  51.20483398
H    19.05999947  12.63000011  52.42000198
H    17.20000076  11.25000000  47.95999908
H    19.57999992  10.80000019  47.11999893
H    21.93000031  10.47999954  47.69000244
H    21.11000061  11.84999943  51.84000015
H    13.02999973  13.43000031  52.00000000
H    23.25000000  10.01000023  50.24000168
H    23.80000114  11.47999954  49.40999985
S    11.97999954  12.01000023  47.54000092
C     9.32999992  12.64999962  48.34999847
C    10.62999916  12.50000000  48.63999939
C    11.13999939  12.97999954  49.86999893
C    10.25000000  13.47000027  50.86999893
C     8.86999989  13.50999928  50.58000183
C     8.00000000  14.01999950  51.56000137
C     6.67000008  14.34000015  51.25999832
C     6.21999979  14.00000000  49.97000122
C     7.03999996  13.43000031  49.02000046
C     8.40999985  13.09999943  49.31000137
C    12.61999989  12.79999924  49.94999695
C    13.15000057  12.28000069  48.76999664
C    14.52999973  12.02000046  48.68999863
C     4.79999971  14.29999924  49.54999924
H     4.58743334  13.93863583  48.54385376
H     8.96000004  12.42000008  47.36000061
H    10.59999943  13.82999992  51.83000183
H     8.32999992  14.28999996  52.56000137
H     5.92999983  14.70000076  51.95999908
H     6.69000053  13.31999969  48.00000000
H    14.96999931  11.57999992  47.80000305
H     4.65000010  15.39000034  49.54999924
H     4.19999981  13.80000019  50.31999969
