96

S    11.92000008  16.56999969  44.36999893
C     9.26999950  16.97000122  45.20000076
C    10.53999996  16.55999947  45.45000076
C    10.85000038  16.18999863  46.79999924
C     9.84000015  16.29999924  47.80000305
C     8.53999996  16.72000122  47.56999969
C     7.46000004  16.75000000  48.52000427
C     6.14000034  17.09000015  48.11000061
C     5.88999987  17.36999893  46.72000122
C     6.93000031  17.34000015  45.77000046
C     8.27999973  17.04000092  46.19999695
C    12.25000000  15.93999958  46.86000061
C    12.97000027  16.10999870  45.68000031
C    14.40000057  16.13000107  45.65000153
C     4.46000004  17.76000023  46.36000061
H     4.09855366  17.34894371  45.41740417
H     8.98999977  17.45000076  44.27000046
H    10.06000042  16.09000015  48.83999634
H     7.72000027  16.43000031  49.52999878
H     5.36999989  17.21999931  48.86000061
H     6.89000034  17.51000023  44.69999695
H    14.86999989  16.31000137  44.68000031
H     3.98000002  17.28000069  47.22999954
H     4.30999994  18.85000038  46.40999603
S    15.57999992  15.11000061  49.16999817
C    18.20000076  14.68000031  48.40000153
C    16.94000053  15.03999901  48.04999924
C    16.59000015  15.52000046  46.81000137
C    17.57999992  15.77000046  45.86000061
C    18.90999985  15.36000061  46.11999893
C    19.96000099  15.60999966  45.20999908
C    21.22999954  15.29000092  45.51000214
C    21.54999924  14.55999947  46.73999786
C    20.55000114  14.27000046  47.64999771
C    19.19999886  14.67000008  47.37999725
C    15.15999985  15.77000046  46.72999954
C    14.47999954  15.57999992  47.93000031
C    13.07000065  15.69000053  47.97000122
C    22.95000076  14.19999981  47.09000015
H    23.28557587  14.88543129  47.86825180
H    18.45000076  14.37000084  49.41999817
H    17.39999962  16.21999931  44.88999939
H    19.57999992  16.20000076  44.36999893
H    22.01000023  15.60999966  44.84000397
H    20.81000137  13.86000061  48.61999893
H    12.58999920  15.47999954  48.92000198
H    23.71000099  14.21000004  46.30000305
H    23.00000000  13.15000057  47.42000198
S    11.44999981  17.01000023  51.11999893
C     8.82999992  17.42000008  51.84999847
C    10.07999992  16.90000153  52.19999695
C    10.46000004  16.46000099  53.48999786
C     9.44999981  16.44000053  54.43999863
C     8.14000034  16.84000015  54.08000183
C     7.09999990  16.50000000  54.99000168
C     5.84000015  16.98999977  54.62999725
C     5.56999969  17.57999992  53.36000061
C     6.58999968  17.80999947  52.49000168
C     7.83999968  17.45000076  52.81000137
C    11.87000084  16.38000107  53.68000031
C    12.56999969  16.51000023  52.42000198
C    13.90999985  16.56999969  52.35000229
C     4.11999989  17.94000053  52.95000076
H     3.86392260  17.44918633  52.01105118
H     8.64999962  17.84000015  50.86000061
H     9.61999989  15.81999969  55.31999969
H     7.20000029  15.86999989  55.86000061
H     5.05000019  16.92000008  55.35999680
H     6.38999987  18.11000061  51.46999741
H    14.40999985  16.81999969  51.42000198
H     3.42000008  17.82999992  53.79000092
H     4.13999987  19.02000046  52.74000168
S    15.29999924  15.76000023  55.90999985
C    17.90999985  15.52999973  55.06000137
C    16.63999939  15.82999992  54.79000092
C    16.17000008  16.13000107  53.48999786
C    17.11000061  16.06999969  52.43999863
C    18.45999908  15.77000046  52.75000000
C    19.48999977  15.72999954  51.72999954
C    20.81000137  15.65999985  52.11999893
C    21.18999863  15.52000046  53.47000122
C    20.25000000  15.40999985  54.47000122
C    18.86999893  15.50000000  54.09999847
C    14.72000027  16.28000069  53.43000031
C    14.07999992  16.07999992  54.66999817
C    12.69000053  16.15999985  54.86000061
C    22.63000107  15.78999996  53.81000137
H    22.84079361  15.48786449  54.83585739
H    18.25000000  15.21999931  56.04000092
H    16.86000061  16.31999969  51.40999603
H    19.22999954  15.90999985  50.68999863
H    21.55999947  15.81999969  51.33999634
H    20.59999847  15.55999947  55.48999786
H    12.27000046  15.88999939  55.83000183
H    22.80999947  16.86000061  53.68999863
H    23.29999924  15.34999943  53.06000137
