96

S    12.50000000  16.36000061  44.08000183
C     9.81999969  16.95000076  44.66999817
C    11.03000069  16.36000061  45.00999832
C    11.38000011  15.93000031  46.32999802
C    10.39000034  15.93999958  47.25999832
C     9.13999939  16.54000092  47.00000000
C     8.07999992  16.40999985  48.01000214
C     6.80999994  16.84000015  47.65999603
C     6.51000023  17.29999924  46.36000061
C     7.48000050  17.57999992  45.44000244
C     8.82000065  17.17000008  45.72000122
C    12.81000042  15.92000008  46.59999847
C    13.57999992  16.06999969  45.44000244
C    15.00000000  16.23999977  45.43000031
C     5.09999990  17.59000015  45.94999695
H     4.70106983  17.09133720  45.06665802
H     9.64999962  17.21999931  43.62999725
H    10.65999985  15.48999977  48.20999908
H     8.19999981  16.05999947  49.02999878
H     6.01999998  16.70999908  48.39000320
H     7.30000019  18.05999947  44.48999786
H    15.52000046  16.28999901  44.47999954
H     4.46999979  17.46999931  46.84000015
H     5.13999987  18.68000031  45.79999924
S    15.92000008  15.31999969  49.05000305
C    18.59000015  15.17000008  48.53000259
C    17.32999992  15.36999893  48.09999847
C    17.12000084  15.88000107  46.77999878
C    18.11000061  15.88999939  45.81999969
C    19.43000031  15.51000023  46.20999908
C    20.45999908  15.38000011  45.21999741
C    21.68999863  14.96000099  45.63000107
C    22.04000092  15.03000069  47.01000214
C    21.07000160  15.03000069  47.95000076
C    19.75000000  15.26999950  47.58999634
C    15.65999985  16.07999992  46.59000015
C    14.88000011  15.82999992  47.74000168
C    13.48999977  15.75000000  47.84000015
C    23.45000076  14.73999977  47.36000061
H    23.68405724  14.91731548  48.40970230
H    18.71000099  14.85000038  49.55999756
H    17.95999908  16.07999992  44.75999832
H    20.28000069  15.62000084  44.18000031
H    22.36999893  14.65000057  44.85000229
H    21.28999901  14.60999966  48.93000031
H    12.98999977  15.52000046  48.77999878
H    24.04999924  15.44999981  46.77000046
H    23.78000069  13.76000023  47.01000214
S    16.02000046  13.15999985  52.30999756
C    18.63999939  12.46999931  51.38000107
C    17.23999977  12.44999981  51.23000336
C    16.69999886  11.95000076  50.04000092
C    17.50000000  11.36999989  49.08000183
C    18.93000031  11.38000011  49.25000000
C    19.79999924  10.97000027  48.15999985
C    21.15999985  11.13000011  48.34000015
C    21.68999863  11.54000092  49.54999924
C    20.88000107  12.09000015  50.52999878
C    19.51000023  12.01000023  50.37000275
C    15.29999924  12.30999947  49.88999939
C    14.73999977  12.84999943  51.04000092
C    13.43999958  13.10999966  51.17000198
C    23.11000061  11.13999939  49.94999695
H    23.32345963  11.38788795  50.98974991
H    19.01000023  12.84000015  52.32999802
H    17.02000046  10.97000027  48.18999863
H    19.29000092  10.51000023  47.32999802
H    21.81999969  10.55999947  47.69000244
H    21.18000031  12.50000000  51.50000000
H    13.01000023  13.52000046  52.06999969
H    23.31000137  10.11000061  49.64000320
H    23.85000038  11.68000031  49.34999847
S    11.84000015  11.78999996  47.72999573
C     9.26000023  12.64999962  48.31999969
C    10.59999943  12.61999989  48.67000198
C    11.10999966  13.12000084  49.91000366
C    10.22999954  13.73000050  50.79000092
C     8.86999989  13.63000011  50.52999878
C     7.92999983  14.37999916  51.31999969
C     6.57999992  14.50000000  51.04000092
C     6.10000038  13.88000011  49.82999802
C     7.00000000  13.27000046  48.95000076
C     8.34999943  13.15999985  49.26000214
C    12.56000042  12.86000061  50.01999664
C    13.12000084  12.25000000  48.90999603
C    14.47000027  11.97999954  48.81999969
C     4.67000008  14.13000011  49.50000000
H     4.43143749  13.76131248  48.50237274
H     8.86999989  12.43000031  47.32999802
H    10.72999954  14.11000061  51.68000031
H     8.39999962  14.93999958  52.11999893
H     5.89999962  15.11000061  51.63000107
H     6.58999968  12.98999977  47.97999954
H    14.89999962  11.49000072  47.95000076
H     4.41000032  15.19000053  49.56999969
H     4.07999992  13.57999992  50.24000168
