96

S    12.13999939  17.12000084  44.26000214
C     9.43000031  17.39999962  45.00999832
C    10.72000027  16.97000122  45.34999847
C    11.05999947  16.54999924  46.65000153
C    10.06000042  16.45000076  47.58999634
C     8.71999931  16.73999977  47.32999802
C     7.71000004  16.77999878  48.33000183
C     6.46000004  17.12000084  48.04000092
C     6.09000015  17.54999924  46.72999954
C     7.05999947  17.46999931  45.66999817
C     8.39999962  17.31999969  46.00999832
C    12.51000023  16.31999969  46.79999924
C    13.22000027  16.54000092  45.59000015
C    14.59000015  16.39999962  45.52999878
C     4.73000002  17.88999939  46.30000305
H     4.30526924  17.14852142  45.62331009
H     9.07999992  17.65999985  44.01000214
H    10.39999962  16.27000046  48.61000061
H     8.13000011  16.69000053  49.33000183
H     5.77000046  16.90000153  48.85000229
H     6.81999969  17.78000069  44.65999985
H    15.15999985  16.62999916  44.64000320
H     4.05000019  17.94000053  47.15999985
H     4.74000025  18.89999962  45.86999893
S    15.53999996  15.32999992  49.18000031
C    18.30000114  14.96000099  48.41999817
C    17.00000000  15.34999943  48.13000107
C    16.67000008  15.90000057  46.84999847
C    17.60000038  16.21000099  45.89000320
C    18.89999962  15.78999996  46.11000061
C    19.97999954  15.82999992  45.06999969
C    21.21999931  15.44000053  45.34000015
C    21.55999947  14.88999939  46.53999710
C    20.63999939  14.78000069  47.52999878
C    19.27999878  15.14999962  47.36000061
C    15.26000023  16.03999901  46.68000031
C    14.50000000  15.80000019  47.88000107
C    13.15000057  15.95000076  47.97000122
C    22.95000076  14.61999989  46.90999985
H    23.24410820  15.11718369  47.83434296
H    18.48999977  14.37000084  49.31000137
H    17.28000069  16.46999931  44.88999939
H    19.64999962  16.26000023  44.13000107
H    22.00000000  15.47999954  44.58000183
H    20.94000053  14.35999966  48.48999786
H    12.44999981  15.85000038  48.80000305
H    23.78000069  14.70999908  46.18999863
H    22.92000008  13.55999947  47.18999863
S    11.97000027  17.15999985  51.04000092
C     9.26000023  17.51000023  51.81999969
C    10.52000046  17.10000038  52.12999725
C    10.90999985  16.62999916  53.44999695
C     9.94999981  16.45000076  54.40000153
C     8.60000038  16.79999924  54.10999680
C     7.57000017  16.79999924  55.06000137
C     6.34999990  17.38999939  54.77000427
C     5.98999977  17.79999924  53.47000122
C     6.97000027  17.84000015  52.55000305
C     8.26000023  17.42000008  52.80000305
C    12.35000038  16.57999992  53.54999924
C    13.04999924  16.72000122  52.36000061
C    14.44000053  16.72999954  52.23999786
C     4.63000011  18.17000008  53.11000061
H     4.32253456  17.91973686  52.09465027
H     9.06000042  17.97000122  50.84999847
H    10.13000011  16.18000031  55.44000244
H     7.86000013  16.46999931  56.04999924
H     5.69999981  17.52000046  55.63000107
H     6.80000019  18.20999908  51.53999710
H    15.00000000  16.90999985  51.32999802
H     3.84999990  17.60000038  53.62999725
H     4.51000023  19.22000122  53.40000153
S    15.52000046  15.77000046  55.94999695
C    18.15000153  15.31000042  55.13999939
C    16.90999985  15.75000000  54.87999725
C    16.55999947  16.18000031  53.54999924
C    17.47999954  16.04999924  52.55000305
C    18.82999992  15.72000027  52.83000183
C    19.86999893  15.72999954  51.81000137
C    21.18999863  15.29000092  52.09999847
C    21.45999908  14.98999977  53.50999832
C    20.51000214  14.84000015  54.50000000
C    19.14999962  15.31000042  54.19000244
C    15.18000031  16.54999924  53.43999863
C    14.47000027  16.36999893  54.66999817
C    13.07999992  16.31000137  54.68000031
C    22.86999893  14.72000027  53.95999908
H    23.08398628  15.04466915  54.97828293
H    18.31999969  14.82999992  56.10000229
H    17.18000031  16.31000137  51.53999710
H    19.51000023  16.13000107  50.86000061
H    21.97000122  15.36000061  51.33999634
H    20.72999954  14.46000004  55.50000000
H    12.65999985  16.15999985  55.68000031
H    23.61000061  15.07999992  53.23999786
H    23.03999901  13.63999939  53.85000229
