96

S    12.38000011  16.46999931  43.96999741
C     9.75000000  16.95999908  44.79000092
C    11.03999996  16.53000069  45.05000305
C    11.44000053  16.13000107  46.42000198
C    10.40999985  15.98999977  47.36000061
C     9.10000038  16.44000053  47.11000061
C     8.07999992  16.44000053  48.15999985
C     6.86999989  16.88999939  47.90999985
C     6.48999977  17.46999931  46.63000107
C     7.46999979  17.46000099  45.61000061
C     8.78999996  16.92000008  45.79000092
C    12.84000015  15.82999992  46.52000046
C    13.50999928  16.03999901  45.27999878
C    14.84000015  16.04999924  45.15999603
C     5.03999996  17.80999947  46.32999802
H     4.76717424  17.27870750  45.41819000
H     9.56999969  17.56000137  43.90999603
H    10.69000053  15.75000000  48.37999725
H     8.34000015  15.93999958  49.09000015
H     6.02999973  16.76000023  48.59000397
H     7.21000004  18.07999992  44.75999832
H    15.24000072  16.13000107  44.15000153
H     4.38000011  17.39999962  47.11000061
H     4.94000006  18.89000130  46.24000168
S    16.04999924  15.29000092  48.86000061
C    18.73999977  14.88999939  48.06999969
C    17.42000008  15.31000042  47.78999710
C    17.04000092  15.77000046  46.46999741
C    18.01000023  15.81999969  45.45999908
C    19.36000061  15.34000015  45.66999817
C    20.32999992  15.26000023  44.68999863
C    21.61999893  14.80999947  44.91000366
C    21.97999954  14.44000053  46.20999908
C    21.01000023  14.39000034  47.18999863
C    19.67000008  14.80000019  46.97000122
C    15.65000057  15.78999996  46.30000305
C    14.96999931  15.52999973  47.50999832
C    13.57999992  15.48999977  47.63000107
C    23.39999962  14.07999992  46.65000153
H    23.54211617  14.48503304  47.65192413
H    18.98999977  14.63000107  49.09999847
H    17.68000031  16.04999924  44.45000076
H    19.97999954  15.55999947  43.70999908
H    22.34999847  14.68999958  44.10999680
H    21.28000069  14.06000042  48.18999863
H    13.01000023  15.38000011  48.54999924
H    24.15999985  14.44000053  45.93999863
H    23.50000000  12.97999954  46.60999680
S    16.21999931  12.68000031  51.98999786
C    18.93000031  12.22000027  51.25000000
C    17.60000038  12.20000076  50.86000061
C    17.09000015  11.90000057  49.51000214
C    17.98999977  11.54000092  48.54999924
C    19.36000061  11.51999950  48.86000061
C    20.42000008  11.09000015  47.98999786
C    21.70999908  11.10000038  48.30999756
C    22.13999939  11.40999985  49.68000031
C    21.24000168  12.05000019  50.50000000
C    19.85000038  11.98999977  50.18000031
C    15.65999985  12.23000050  49.38999939
C    15.10000038  12.68000031  50.59999847
C    13.80000019  13.20000076  50.65000153
C    23.52999878  11.07999992  50.21999741
H    23.71817780  11.40366459  51.24368286
H    19.29000092  12.56999969  52.21000290
H    17.64999962  11.23999977  47.56000137
H    20.17000008  10.73999977  46.98999786
H    22.42000198  10.59999943  47.64999771
H    21.51000023  12.36999989  51.50000000
H    13.27999973  13.48000050  51.56000137
H    23.59000015   9.98000050  50.20000076
H    24.15999985  11.52999973  49.45000076
S    12.25999928  12.25999928  47.16999817
C     9.61999989  12.71000004  48.11999893
C    10.98999977  12.88000011  48.23999786
C    11.52999973  13.30000019  49.47000122
C    10.72000027  13.85000038  50.45999908
C     9.27999973  13.69999981  50.31000137
C     8.38999939  14.11999893  51.31000137
C     7.03000021  14.35999966  51.09000397
C     6.51999998  13.83999920  49.84000397
C     7.31999969  13.09000015  48.95000076
C     8.71999931  13.09000015  49.15000153
C    12.97999954  13.09000015  49.59999847
C    13.45999908  12.51999950  48.37999725
C    14.78000069  12.07999992  48.27999878
C     5.03999996  14.11999893  49.48999786
H     4.73886347  13.60176563  48.57958603
H     9.18000031  12.25000000  47.23999786
H    11.10000038  14.06000042  51.45999908
H     8.78999996  14.47000027  52.25000000
H     6.40999985  14.80000019  51.86999893
H     6.89000034  12.71999931  48.02000046
H    15.08999920  11.64000034  47.32999802
H     4.75000000  15.17000008  49.38999939
H     4.38000011  13.71000099  50.26000214
