96

S    12.13999939  16.88999939  44.26000214
C     9.63999939  17.48999977  45.06000137
C    10.80000019  16.87999916  45.40000153
C    11.13999939  16.42000008  46.65999985
C    10.14000034  16.44000053  47.62000275
C     8.85000038  16.87000084  47.27000427
C     7.76999998  16.65999985  48.13000107
C     6.48000002  17.02000046  47.81999969
C     6.32000017  17.71999931  46.56999969
C     7.31999969  18.01000023  45.72000122
C     8.61999989  17.51000023  46.00000000
C    12.61999989  16.15999985  46.79000092
C    13.26000023  16.38000107  45.54999924
C    14.57999992  16.28999901  45.45999908
C     4.88999987  17.94000053  46.04999924
H     4.53755713  17.27827072  45.25880051
H     9.52000046  18.15999985  44.20999908
H    10.24000072  15.90999985  48.55999756
H     7.90999985  16.10999870  49.06000137
H     5.68000031  16.79000092  48.50999832
H     7.07999992  18.50000000  44.78000259
H    15.17000008  16.55999947  44.59999847
H     4.26999998  17.88999939  46.95000076
H     4.90000010  18.96999931  45.68000031
S    15.81999969  15.44999981  49.09999847
C    18.46999931  15.11999989  48.34999847
C    17.19000053  15.40999985  47.95999908
C    16.81999969  15.84000015  46.66999817
C    17.80999947  15.84000015  45.68999863
C    19.19000053  15.62999916  46.03000259
C    20.20999908  15.65999985  45.08999634
C    21.48999977  15.25000000  45.43000031
C    21.77000046  14.80999947  46.77999878
C    20.81000137  14.86999989  47.72999573
C    19.52000046  15.21000004  47.38999939
C    15.36000061  16.04999924  46.59999847
C    14.73999977  15.85000038  47.83000183
C    13.34000015  15.90000057  47.95999908
C    23.15999985  14.29999924  47.14000320
H    23.42403984  14.54976940  48.16762161
H    18.61999893  14.65000057  49.31000137
H    17.46999931  15.88999939  44.65999985
H    19.96000099  15.95000076  44.08000183
H    22.32000160  15.27999973  44.72999954
H    20.97999954  14.59000015  48.76999664
H    12.71000004  15.80000019  48.83999634
H    23.94000053  14.70999908  46.49000168
H    23.16999817  13.21000004  47.04000092
S    15.88000107  13.00000000  52.42000198
C    18.53999901  12.42000008  51.69000244
C    17.20999908  12.55000019  51.38999939
C    16.77999878  12.20000076  50.12000275
C    17.65999985  11.61999893  49.16999817
C    19.05999947  11.51999950  49.43000031
C    19.96000099  10.98000050  48.46000290
C    21.34000015  10.75000000  48.80000305
C    21.81999969  11.18000031  50.02999878
C    20.95000076  11.79999924  51.02000427
C    19.55999947  11.95000076  50.73999786
C    15.36000061  12.30999947  49.87999725
C    14.70999908  12.71999931  51.07999802
C    13.32999992  13.00000000  51.10000229
C    23.32999992  10.85999966  50.31999969
H    23.59607697  11.15408516  51.33529282
H    18.78000069  12.48999977  52.75000000
H    17.27000046  11.19999981  48.25000000
H    19.55999947  10.65000057  47.50999832
H    22.01000023  10.25000000  48.09999847
H    21.21000099  12.02000046  52.04999924
H    12.93000031  13.30000019  52.05999756
H    23.51000023   9.77999973  50.20000076
H    23.92000008  11.39999962  49.58000183
S    12.11999989  12.25000000  47.45999908
C     9.39000034  12.86000061  48.09999847
C    10.76000023  12.76000023  48.39000320
C    11.18999958  13.17999935  49.68999863
C    10.22999954  13.55999947  50.70000076
C     8.85000038  13.68999958  50.40999985
C     7.85000038  14.06999969  51.31000137
C     6.48000002  14.09999943  51.00000000
C     6.10000038  13.73999977  49.65999985
C     7.07000017  13.27000046  48.82999802
C     8.45000076  13.28999996  49.13999939
C    12.60000038  12.93000031  49.93999863
C    13.26000023  12.38000011  48.79000092
C    14.59000015  12.05999947  48.73000336
C     4.67999983  13.97999954  49.22000122
H     4.39936733  13.46910477  48.29895020
H     9.02999973  12.75000000  47.08000183
H    10.59000015  13.67000008  51.72000122
H     8.17000008  14.42000008  52.29000092
H     5.82000017  14.47000027  51.77999878
H     6.80999994  13.02999973  47.80000305
H    15.00000000  11.59000015  47.83000183
H     4.46999979  15.05000019  49.12000275
H     4.01999998  13.60000038  50.00999832
