96

S    12.13999939  16.69000053  43.88000107
C     9.44000053  16.94000053  44.79999924
C    10.76000023  16.80999947  45.08999634
C    11.21000099  16.52000046  46.44000244
C    10.34000015  16.39999962  47.50000000
C     8.96000004  16.56999969  47.23999786
C     7.90999985  16.60000038  48.20999908
C     6.61000013  16.86000061  47.90000153
C     6.19999981  17.18000031  46.62000275
C     7.18999958  17.26000023  45.63000107
C     8.52000046  16.88999939  45.89000320
C    12.64000034  16.43000031  46.47999573
C    13.28999996  16.39999962  45.21999741
C    14.65000057  16.29999924  45.14999771
C     4.76999998  17.50000000  46.24000168
H     4.33322334  16.78659821  45.54115677
H     9.04999924  17.38000107  43.88000107
H    10.62000084  16.36000061  48.54999924
H     8.22000027  16.39999962  49.23999786
H     5.84999990  16.86000061  48.67000198
H     6.94000006  17.63000107  44.64000320
H    15.21000004  16.46000099  44.23999786
H     4.19000006  17.56000137  47.16999817
H     4.81999969  18.44000053  45.66999817
S    15.80000019  15.75000000  49.00000000
C    18.37000084  14.96999931  48.18999863
C    17.14999962  15.62999916  47.91999817
C    16.84999847  16.04999924  46.55000305
C    17.88999939  16.03999901  45.63000107
C    19.17000008  15.62000084  45.97000122
C    20.25000000  15.62000084  45.00000000
C    21.50000000  15.19999981  45.41999817
C    21.73999977  14.57999992  46.70999908
C    20.69000053  14.52000046  47.60000229
C    19.40999985  15.03999901  47.28000259
C    15.40999985  16.11999893  46.36000061
C    14.75000000  16.07999992  47.62000275
C    13.38000107  16.27000046  47.63999939
C    23.11000061  14.13000011  47.05999756
H    23.41450691  14.37509060  48.07749939
H    18.43000031  14.32999992  49.06000137
H    17.78000069  16.10000038  44.54999924
H    20.17999840  16.10999870  44.03999710
H    22.32999992  15.21999931  44.72000122
H    20.81000137  14.13000011  48.61000061
H    12.86999893  16.29999924  48.60000229
H    23.71000099  14.75999928  46.38999939
H    23.28000069  13.07000065  46.84000015
S    11.59000015  16.95000076  51.04000092
C     8.97999954  17.36999893  51.90999985
C    10.21000004  16.97999954  52.18000031
C    10.65999985  16.63999939  53.46000290
C     9.71000004  16.59000015  54.51000214
C     8.45000076  17.05000114  54.20999908
C     7.37999964  16.93000031  55.17000198
C     6.09000015  17.27000046  54.82999802
C     5.73000002  17.56999969  53.48999786
C     6.71000004  17.64000130  52.50999832
C     8.07999992  17.48999977  52.93000031
C    12.06999969  16.39999962  53.52000427
C    12.72999954  16.46999931  52.27000427
C    14.09999943  16.31999969  52.15000153
C     4.30000019  17.89999962  53.09999847
H     3.91389775  17.32799721  52.25629425
H     8.64000034  17.50000000  50.89000320
H     9.84000015  16.02000046  55.43000031
H     7.57999992  16.34000015  56.05999756
H     5.32000017  17.26000023  55.59999847
H     6.51000023  18.09999847  51.55000305
H    14.65000057  16.39000130  51.22000122
H     3.67000008  17.53000069  53.92000198
H     4.13999987  18.97999954  53.02000046
S    15.27999973  15.78999996  55.90000153
C    17.94999886  15.39999962  55.06999969
C    16.70999908  15.82999992  54.77000427
C    16.25000000  16.11999893  53.41999817
C    17.21999931  16.21000099  52.49000168
C    18.60000038  15.86999989  52.78999710
C    19.61000061  15.92000008  51.77000046
C    20.90999985  15.44000053  52.11999893
C    21.14999962  14.85999966  53.43999863
C    20.17000008  14.80999947  54.38000107
C    18.94000053  15.38000011  54.09999847
C    14.85000038  16.15999985  53.29000092
C    14.19999981  16.07999992  54.56999969
C    12.86000061  16.18000031  54.68000031
C    22.59000015  14.48999977  53.80000305
H    23.02313423  14.90916157  54.70818710
H    18.18000031  14.85999966  55.98999786
H    17.02999878  16.57999992  51.47999573
H    19.44000053  16.39000130  50.80999756
H    21.70999908  15.88000107  51.53999710
H    20.38999939  14.52999973  55.40999985
H    12.55000019  15.81999969  55.65000153
H    23.29000092  14.70999908  52.97999954
H    22.65000153  13.40999985  53.95999908
