96

S    12.05000019  16.92000008  44.13000107
C     9.44000053  17.28999901  44.88999939
C    10.72000027  16.93000031  45.22999573
C    11.05000019  16.36999893  46.52999878
C    10.10000038  16.21000099  47.45999908
C     8.78000069  16.62999916  47.16999817
C     7.76999998  16.55999947  48.15000153
C     6.46000004  16.97000122  47.93000031
C     6.11999989  17.38999939  46.63000107
C     7.03000021  17.45000076  45.61000061
C     8.39999962  17.11000061  45.81999969
C    12.48999977  16.18000031  46.59999847
C    13.17999935  16.32999992  45.35999680
C    14.55999947  16.34000015  45.31999969
C     4.71000004  17.68000031  46.32999802
H     4.22682285  17.17518806  45.49345398
H     9.36999989  17.79000092  43.93000031
H    10.34000015  15.98000050  48.50000000
H     8.01000023  16.13999939  49.12000275
H     5.77000046  17.05000114  48.76999664
H     6.78999996  17.75000000  44.59000015
H    14.96999931  16.70999908  44.38999939
H     4.15999985  17.48999977  47.25999832
H     4.65000010  18.77000046  46.29000092
S    15.65000057  15.51000023  48.99000168
C    18.25000000  14.85999966  48.27000046
C    17.02999878  15.18000031  47.84000015
C    16.69000053  15.55999947  46.49000168
C    17.69000053  15.72999954  45.65999985
C    19.00000000  15.29000092  46.00999832
C    20.03999901  15.31000042  45.11000061
C    21.31000137  15.05000019  45.47999954
C    21.63999939  14.70000076  46.81000137
C    20.65999985  14.63000107  47.70000076
C    19.27000046  14.91000080  47.35000229
C    15.27999973  15.98000050  46.39999771
C    14.60000038  15.84000015  47.62000275
C    13.25000000  15.88000107  47.75000000
C    23.06999969  14.37000084  47.11000061
H    23.35557747  14.92687702  48.00243378
H    18.54999924  14.52000046  49.26000214
H    17.56000137  16.40999985  44.81999969
H    19.81999969  15.70000076  44.12000275
H    22.11999893  15.11999989  44.75999832
H    20.86000061  14.37000084  48.74000168
H    12.74000072  15.71000004  48.69999695
H    23.59999847  14.80000019  46.24000168
H    23.13999939  13.28999996  47.29999924
S    12.05999947  17.06999969  50.94999695
C     9.23999977  17.40999985  51.53999710
C    10.57999992  17.14999962  51.95000076
C    10.93000031  16.87999916  53.36999893
C     9.90999985  16.68000031  54.29000092
C     8.59000015  17.06999969  53.97999573
C     7.60999966  17.02000046  54.99000168
C     6.30999994  17.28999901  54.68999863
C     5.96000004  17.73999977  53.40000153
C     6.86999989  17.75000000  52.36999893
C     8.23999977  17.36999893  52.61000061
C    12.32999992  16.75000000  53.56999969
C    13.02000046  16.90000153  52.32999802
C    14.45000076  16.84000015  52.23999786
C     4.61000013  18.39999962  53.18000031
H     4.10750151  17.71604347  52.49604034
H     8.97000027  17.70000076  50.52999878
H    10.03999901  16.13000107  55.21999741
H     7.99000025  16.67000008  55.93999863
H     5.65999985  17.35999870  55.54999924
H     6.57999992  18.13999939  51.38999939
H    14.96000099  16.88999939  51.27999878
H     4.02999973  18.37000084  54.10999680
H     4.73000002  19.42000008  52.78999710
S    15.54999924  15.81999969  55.87999725
C    18.20999908  15.47999954  55.26000214
C    16.94000053  15.88999939  54.89999771
C    16.61000061  16.36000061  53.57999802
C    17.61999893  16.34000015  52.61000061
C    18.92000008  15.93000031  52.98999786
C    19.95000076  15.85999966  52.00000000
C    21.28000069  15.57000065  52.22000122
C    21.63000107  15.11999989  53.53000259
C    20.65999985  15.19000053  54.52000046
C    19.27999878  15.50000000  54.29000092
C    15.19999981  16.61999893  53.39000320
C    14.46000004  16.38000107  54.61000061
C    13.03999996  16.45000076  54.77000427
C    23.09000015  14.85999966  53.81000137
H    23.22239685  15.08066368  54.86919022
H    18.44000053  15.21999931  56.29000092
H    17.43000031  16.43000031  51.53999710
H    19.70999908  16.10000038  50.97000122
H    22.00000000  15.59999943  51.40999603
H    20.92000008  14.98000050  55.54999924
H    12.60000038  16.34000015  55.76000214
H    23.68999863  15.57000065  53.22999954
H    23.26999855  13.80000019  53.63999939
