96

S    12.27000046  17.42000008  44.47000122
C     9.59000015  17.73999977  45.24000168
C    10.86999989  17.25000000  45.50000000
C    11.26999950  16.70999908  46.79999924
C    10.19000053  16.51000023  47.76000214
C     8.89999962  16.90000153  47.45999908
C     7.82999992  16.63999939  48.30999756
C     6.57999992  17.12000084  48.06000137
C     6.25000000  17.64000130  46.79000092
C     7.23000002  17.87999916  45.84999847
C     8.57999992  17.50000000  46.19999695
C    12.69999981  16.45000076  46.88000107
C    13.32999992  16.77000046  45.68000031
C    14.73999977  16.72000122  45.61999893
C     4.88999987  18.07999992  46.37000275
H     4.60571814  17.58961296  45.43898010
H     9.35000038  18.15999985  44.27000046
H    10.32999992  16.11999893  48.76999664
H     8.07999992  16.13999939  49.25000000
H     5.82000017  17.19000053  48.83999634
H     7.09999990  18.45999908  44.93999863
H    15.29000092  16.98999977  44.72999954
H     4.07999992  17.85000038  47.08000183
H     5.07000017  19.14999962  46.19999695
S    15.77999973  15.57999992  49.20999908
C    18.51000023  15.26999950  48.56999969
C    17.23999977  15.67000008  48.15999985
C    16.88999939  16.17000008  46.86000061
C    17.80999947  16.25000000  45.90000153
C    19.19000053  15.85999966  46.22000122
C    20.28000069  15.98999977  45.28999710
C    21.55999947  15.69000053  45.59999847
C    21.87000084  15.11999989  46.84999847
C    20.89999962  15.06000042  47.80000305
C    19.54000092  15.40999985  47.56000137
C    15.47000027  16.36000061  46.79000092
C    14.72000027  16.02000046  47.95000076
C    13.38000107  15.88999939  47.95999908
C    23.29000092  14.73000050  47.29999924
H    23.67508125  15.30398941  48.14282227
H    18.68000031  15.03000069  49.61999893
H    17.61000061  16.46999931  44.85000229
H    19.97999954  16.39000130  44.33000183
H    22.29000092  15.70000076  44.79000092
H    21.04000092  14.51000023  48.73000336
H    12.86000061  15.60999966  48.87000275
H    24.13999939  14.68999958  46.59999847
H    23.21000099  13.68000031  47.62000275
S    15.78999996  12.76000023  52.38999939
C    18.52000046  12.30000019  51.72000122
C    17.19000053  12.30000019  51.38999939
C    16.76000023  12.01000023  50.01999664
C    17.73999977  11.77000046  49.02000046
C    19.13999939  11.61999893  49.40000153
C    20.13000107  11.43000031  48.39000320
C    21.45000076  11.63000011  48.75000000
C    21.84000015  12.07999992  50.02999878
C    20.86000061  12.36999989  50.97999954
C    19.52000046  11.95000076  50.76000214
C    15.31000042  12.20999908  49.88999939
C    14.61999989  12.57999992  51.09000397
C    13.23999977  12.86000061  51.14999771
C    23.26999855  12.28999996  50.37000275
H    23.70090103  11.81739902  51.25265503
H    18.89000130  12.75000000  52.63999939
H    17.46000099  11.57999992  47.98999786
H    19.92000008  11.14999962  47.36000061
H    22.20000076  11.36000061  48.01000214
H    20.93000031  12.79999924  51.97999954
H    12.88000011  13.28999996  52.08000183
H    23.84000015  12.02000046  49.47000122
H    23.38999939  13.36999989  50.52999878
S    11.98999977  12.07999992  47.54000092
C     9.22000027  12.71999931  48.18999863
C    10.57000065  12.65999985  48.52000427
C    11.05999947  12.96000004  49.77000427
C    10.14000034  13.40000057  50.75000000
C     8.73000050  13.50999928  50.47000122
C     7.88000011  14.22999954  51.25999832
C     6.52999973  14.44000053  50.94999695
C     6.01999998  13.96000004  49.75999832
C     6.90000010  13.31999969  48.93000031
C     8.27999973  13.14000034  49.20999908
C    12.46999931  12.76000023  49.98000336
C    13.15000057  12.32999992  48.83999634
C    14.53999996  12.15000057  48.73000336
C     4.55000019  14.27000046  49.31999969
H     4.24905682  13.63228703  48.48882294
H     8.82000065  12.53000069  47.19999695
H    10.51000023  13.83999920  51.66999817
H     8.31999969  14.61999989  52.16999817
H     5.88000011  15.01999950  51.59999847
H     6.58999968  13.03999996  47.93000031
H    15.00000000  12.02000046  47.75000000
H     4.50000000  15.34000015  49.08000183
H     3.86000013  14.09000015  50.15999603
