96

S    11.84999943  16.43000031  44.29000092
C     9.30000019  17.10000038  45.18000031
C    10.44000053  16.35000038  45.43000031
C    10.86999989  15.90000057  46.75000000
C     9.92000008  16.13000107  47.72999573
C     8.65999985  16.72000122  47.51999664
C     7.67000008  16.61999893  48.48999786
C     6.37000036  17.02000046  48.25000000
C     6.07999992  17.48999977  46.97000122
C     7.09000015  17.72999954  46.04000092
C     8.38999939  17.29999924  46.25000000
C    12.32999992  15.77999973  46.88000107
C    12.97999954  16.02000046  45.59999847
C    14.40999985  16.07999992  45.61000061
C     4.63999987  17.81999969  46.56999969
H     4.39242315  17.31796837  45.63470840
H     9.02999973  17.56000137  44.22999954
H    10.15999985  15.70000076  48.69999695
H     7.85000038  16.02000046  49.38999939
H     5.55000019  16.84999847  48.95000076
H     6.90000010  18.20000076  45.06999969
H    14.93000031  16.06999969  44.65999985
H     3.86000013  17.64000130  47.32999802
H     4.50000000  18.88000107  46.31999969
S    15.65999985  15.39000034  49.36000061
C    18.30000114  15.14000034  48.52000427
C    17.02999878  15.55999947  48.23999786
C    16.63999939  16.00000000  46.95000076
C    17.61999893  16.10000038  45.97000122
C    18.98999977  15.88999939  46.29000092
C    19.93000031  15.98000050  45.24000168
C    21.28000069  15.59000015  45.54000092
C    21.61999893  14.94999981  46.73999786
C    20.65000153  14.80999947  47.74000168
C    19.32999992  15.29000092  47.55000305
C    15.14000034  15.97000027  46.81999969
C    14.47000027  15.71000004  47.98999786
C    13.10999966  15.73999977  48.06999969
C    23.02999878  14.57999992  47.06999969
H    23.38875008  15.00909233  48.00556183
H    18.46999931  14.84000015  49.55999756
H    17.28999901  16.21000099  44.93999863
H    19.52999878  16.29999924  44.27999878
H    22.11000061  15.73999977  44.84000397
H    21.04999924  14.47999954  48.68999863
H    12.60000038  15.77999973  49.02000046
H    23.78999901  14.80000019  46.31000137
H    22.98999977  13.48999977  47.16999817
S    11.79999924  16.81999969  51.11000061
C     9.17000008  17.13999939  51.70000076
C    10.43000031  16.79999924  52.11000061
C    10.69000053  16.39000130  53.48999786
C     9.63999939  16.42000008  54.38000107
C     8.32999992  16.70999908  54.00000000
C     7.23000002  16.73999977  54.89999771
C     5.97000027  17.18000031  54.51000214
C     5.80999947  17.79999924  53.23999786
C     6.84000015  17.72999954  52.35000229
C     8.05999947  17.17000008  52.58999634
C    12.11999989  16.32999992  53.67000198
C    12.81999969  16.54000092  52.45999908
C    14.22000027  16.60000038  52.41000366
C     4.40000010  18.15000153  52.80000305
H     4.06408644  17.49961472  51.99237823
H     8.96000004  17.53000069  50.70000076
H     9.92999935  16.28000069  55.41999817
H     7.32999992  16.39999962  55.93000031
H     5.07999992  17.00000000  55.11000061
H     6.67000008  18.17000008  51.37000275
H    14.81999969  16.79999924  51.52999878
H     3.68999982  18.09999847  53.62999725
H     4.30999994  19.17000008  52.41000366
S    15.19999981  15.48999977  56.09000397
C    17.82999992  14.85999966  55.20999908
C    16.59000015  15.40999985  55.01999664
C    16.28000069  16.11999893  53.77999878
C    17.25000000  16.18999863  52.81000137
C    18.57999992  15.78999996  53.08000183
C    19.59000015  15.92000008  52.09000015
C    20.86000061  15.43000031  52.36999893
C    21.11999893  14.63999939  53.55999756
C    20.07999802  14.55000019  54.50000000
C    18.85000038  15.06000042  54.25000000
C    14.86999989  16.39000130  53.61000061
C    14.13000011  16.18000031  54.79000092
C    12.81000042  16.13000107  54.81999969
C    22.46999931  14.23999977  53.88000107
H    22.78627396  14.62502861  54.84944534
H    18.04000092  14.40000057  56.18000031
H    16.93000031  16.47999954  51.81000137
H    19.26000023  16.32999992  51.13999939
H    21.73000145  15.59999943  51.72999954
H    20.23999977  14.09999943  55.47999954
H    12.15000057  15.86999989  55.65000153
H    23.13999939  14.60000038  53.09000015
H    22.50000000  13.15000057  53.73000336
