96

S    12.10000038  16.79999924  44.40999985
C     9.52000046  17.35000038  45.28999710
C    10.77000046  16.93000031  45.56000137
C    11.10999966  16.39999962  46.90000153
C    10.07999992  16.14999962  47.80000305
C     8.75000000  16.61999893  47.50000000
C     7.73000002  16.56999969  48.48999786
C     6.48999977  17.20000076  48.31999969
C     6.21000004  17.79999924  47.11000061
C     7.17999983  17.73999977  46.04999924
C     8.48999977  17.23999977  46.27999878
C    12.57999992  16.10999870  46.95000076
C    13.20000076  16.31999969  45.65999985
C    14.57999992  16.36999893  45.56999969
C     4.76999998  17.98999977  46.60999680
H     4.49646187  17.28455925  45.82537460
H     9.26000023  17.94999886  44.41999817
H    10.29999924  15.65999985  48.74000168
H     8.03999996  16.13999939  49.43999863
H     5.72000027  17.05000114  49.06999969
H     6.90999985  17.79000092  45.00000000
H    15.18000031  16.54000092  44.68000031
H     4.07999992  17.90999985  47.45999908
H     4.65000010  18.98999977  46.18999863
S    15.82999992  15.39000034  49.22000122
C    18.46999931  15.19999981  48.43000031
C    17.20999908  15.47000027  48.16999817
C    16.81999969  15.95000076  46.86000061
C    17.76000023  16.03000069  45.80999756
C    19.11000061  15.62000084  46.05999756
C    20.10000038  15.72000027  45.04000092
C    21.38999939  15.25000000  45.22999573
C    21.73999977  14.98000050  46.52999878
C    20.79999924  14.88999939  47.52999878
C    19.47000122  15.29000092  47.39999771
C    15.40999985  16.13999939  46.70999908
C    14.75000000  15.84000015  47.95999908
C    13.35000038  15.69000053  48.04999924
C    23.25000000  14.85999966  46.81999969
H    23.55562019  15.22813416  47.79937363
H    18.67000008  14.73999977  49.38999939
H    17.46000099  16.28999901  44.79999924
H    19.80999947  16.31999969  44.18000031
H    22.10000038  15.42000008  44.41999817
H    21.18000031  14.70999908  48.54000092
H    12.88000011  15.65000057  49.03999710
H    23.90999985  15.25000000  46.03000259
H    23.29999924  13.76999950  46.81000137
S    11.77999973  17.29999924  50.81999969
C     9.15999985  17.63000107  51.63000107
C    10.42000008  17.18000031  51.95999908
C    10.80999947  16.73999977  53.25000000
C     9.81999969  16.56999969  54.18000031
C     8.59000015  17.13000107  53.97999573
C     7.57999992  17.01000023  54.99000168
C     6.30999994  17.36999893  54.68999863
C     5.95000029  17.89999962  53.47000122
C     6.90000010  18.09999847  52.51999664
C     8.27000046  17.72999954  52.72999573
C    12.25000000  16.52000046  53.40000153
C    12.89999962  16.80999947  52.16999817
C    14.23999977  16.79000092  52.11000061
C     4.51999998  18.07999992  53.18999863
H     4.13440323  17.54162025  52.32422638
H     8.88000011  17.94000053  50.63000107
H    10.01999950  15.98999977  55.07999802
H     7.88999987  16.62999916  55.96000290
H     5.56999969  17.30999947  55.47999954
H     6.51000023  18.19000053  51.51000214
H    14.63000107  16.97000122  51.11000061
H     3.89999986  17.78000069  54.03999710
H     4.36999989  19.15999985  53.13000107
S    15.55999947  15.84000015  55.79999924
C    18.12999916  15.44999981  54.94999695
C    16.87000084  15.95999908  54.66999817
C    16.46000099  16.36000061  53.33000183
C    17.50000000  16.45000076  52.35000229
C    18.81999969  16.07999992  52.70000076
C    19.80999947  15.93999958  51.72999954
C    21.01000023  15.34000015  51.95000076
C    21.38999939  14.93999958  53.20999908
C    20.43000031  14.81999969  54.15000153
C    19.12999916  15.44999981  53.95000076
C    15.03000069  16.48999977  53.20999908
C    14.37999916  16.14999962  54.47999954
C    13.00000000  16.18000031  54.54999924
C    22.86000061  14.75999928  53.61999893
H    22.92481613  14.94004536  54.69306946
H    18.32999992  14.78999996  55.79000092
H    17.28999901  16.62999916  51.30000305
H    19.60000038  16.32999992  50.73999786
H    21.70999908  15.40999985  51.11000061
H    20.63999939  14.44000053  55.14999771
H    12.57999992  15.93999958  55.52000046
H    23.57000160  15.43000031  53.11000061
H    23.11000061  13.71000099  53.40000153
