96

S    11.95000076  16.72000122  44.26000214
C     9.25000000  16.88999939  45.10000229
C    10.52000046  16.46000099  45.35999680
C    10.88999939  16.13999939  46.68000031
C     9.98999977  16.26000023  47.72999573
C     8.67000008  16.64999962  47.37999725
C     7.55999994  16.81999969  48.31999969
C     6.28999996  17.23999977  47.98999786
C     5.91000032  17.36999893  46.63000107
C     6.90999985  17.21999931  45.68999863
C     8.25000000  16.87999916  46.04999924
C    12.38999939  16.17000008  46.90000153
C    13.00000000  16.39000130  45.65999985
C    14.39000034  16.51000023  45.56999969
C     4.48000002  17.75000000  46.29000092
H     4.10970116  17.19455338  45.42834091
H     8.96000004  17.30999947  44.13999939
H    10.26000023  15.93000031  48.73000336
H     7.75000000  16.79000092  49.38999939
H     5.64000034  17.43999863  48.83999634
H     6.63999987  17.28999901  44.64000320
H    14.85999966  16.77999878  44.61999893
H     3.74000025  17.53999901  47.06999969
H     4.50000000  18.77000046  45.89000320
S    15.67000008  15.47999954  49.13999939
C    18.27000046  15.34999943  48.37999725
C    17.01000023  15.67999935  48.04000092
C    16.61999893  16.21000099  46.77000046
C    17.57999992  16.34000015  45.79999924
C    18.86999893  15.85000038  46.11999893
C    19.88999939  15.78999996  45.08999634
C    21.14999962  15.34999943  45.34999847
C    21.52000046  15.03999901  46.72000122
C    20.56999969  15.03999901  47.69000244
C    19.27000046  15.42000008  47.39999771
C    15.15999985  16.36000061  46.69000244
C    14.53999996  15.98999977  47.90000153
C    13.15999985  15.88000107  48.01000214
C    23.02000046  14.70999908  47.12999725
H    23.30478287  15.14812756  48.08657455
H    18.54999924  15.22999954  49.41999817
H    17.31999969  16.69000053  44.80999756
H    19.61000061  15.97000027  44.05000305
H    21.86000061  15.29000092  44.54000092
H    20.72000122  14.55000019  48.64999771
H    12.71000004  15.54999924  48.93000031
H    23.71000099  15.06000042  46.35000229
H    23.13999939  13.63000011  47.25000000
S    11.84000015  17.13999939  51.31000137
C     9.19999981  17.40999985  52.11999893
C    10.44000053  16.87999916  52.30999756
C    10.77999973  16.56999969  53.72000122
C     9.81000042  16.64999962  54.72999954
C     8.47999954  17.02999878  54.43000031
C     7.37999964  16.84000015  55.27999878
C     6.14000034  17.28999901  54.87999725
C     5.82999992  17.73999977  53.59000397
C     6.85999966  17.73999977  52.67000198
C     8.17000008  17.46000099  53.08000183
C    12.20999908  16.39999962  53.88999939
C    12.94999981  16.68000031  52.63999939
C    14.34000015  16.70999908  52.58999634
C     4.42000008  18.02999878  53.11999893
H     4.07818508  17.35349083  52.33667374
H     9.00000000  17.68000031  51.07999802
H    10.05000019  16.31000137  55.72999954
H     7.59999990  16.22999954  56.14999771
H     5.32000017  17.31999969  55.59000015
H     6.78999996  18.17000008  51.68000031
H    14.89999962  16.94000053  51.69000244
H     3.73000002  18.01000023  53.96999741
H     4.32999992  19.04999924  52.70999908
S    15.47000027  15.92000008  56.31999969
C    18.02999878  15.42000008  55.43000031
C    16.80999947  15.86999989  55.15999603
C    16.43000031  16.25000000  53.88000107
C    17.43999863  16.29999924  52.84000015
C    18.77000046  15.92000008  53.16999817
C    19.80999947  16.02000046  52.25000000
C    21.07999992  15.59000015  52.49000168
C    21.38000107  15.11999989  53.82999802
C    20.39999962  15.06000042  54.79999924
C    19.11000061  15.44999981  54.45999908
C    14.98000050  16.31999969  53.74000168
C    14.35999966  16.18000031  55.00999832
C    12.97000027  16.21000099  55.10000229
C    22.79000092  14.61999989  54.16999817
H    23.06677628  15.01032352  55.14935684
H    18.31999969  14.96999931  56.38000107
H    17.18000031  16.42000008  51.79000092
H    19.51000023  16.60000038  51.38000107
H    21.77000046  15.48999977  51.65999985
H    20.58000183  14.61999989  55.77999878
H    12.38999939  16.21999931  56.02000427
H    23.50000000  14.93999958  53.39000320
H    22.67999840  13.53000069  54.20999908
