96

S    12.35999966  16.77000046  44.15000153
C     9.75000000  17.28000069  44.85000229
C    10.98999977  16.81999969  45.24000168
C    11.30000019  16.51000023  46.60999680
C    10.31000042  16.54999924  47.51999664
C     9.01000023  16.97999954  47.15999985
C     7.92999983  16.88999939  48.13999939
C     6.65999985  17.06999969  47.68000031
C     6.38999987  17.38999939  46.29000092
C     7.40000010  17.51000023  45.40000153
C     8.71999931  17.28000069  45.79999924
C    12.76999950  16.31000137  46.72000122
C    13.42000008  16.39999962  45.43000031
C    14.75999928  16.17000008  45.31000137
C     5.00000000  17.78000069  45.93000031
H     4.67235136  17.27760506  45.01986694
H     9.59000015  17.57999992  43.81000137
H    10.52000046  16.28999901  48.55999756
H     8.14000034  16.73999977  49.20000076
H     5.78000021  16.94000053  48.29999924
H     7.07000017  17.71999931  44.38000107
H    15.29999924  16.25000000  44.38000107
H     4.30000019  17.61999893  46.76000214
H     5.05999994  18.86999893  45.89000320
S    15.85000038  15.88999939  49.22999954
C    18.57999992  15.36999893  48.47000122
C    17.27000046  15.73999977  48.18000031
C    16.92000008  15.97000027  46.81999969
C    17.93000031  15.95999908  45.81999969
C    19.26000023  15.53999996  46.09000397
C    20.30999947  15.54999924  45.08999634
C    21.53000069  14.98000050  45.38999939
C    21.83000183  14.65999985  46.70999908
C    20.88000107  14.77000046  47.72999573
C    19.55000114  15.15999985  47.43999863
C    15.47999954  16.03999901  46.55000305
C    14.88000011  16.05999947  47.77000046
C    13.52000046  16.22999954  47.85999680
C    23.23999786  14.47000027  47.09999847
H    23.53999138  14.95569992  48.02854538
H    18.89000130  15.14999962  49.48999786
H    17.79000092  16.20000076  44.77000427
H    20.07999802  15.93999958  44.10999680
H    22.30999947  15.11999989  44.64000320
H    21.17000198  14.65999985  48.76999664
H    13.02000046  16.35000038  48.81999969
H    23.84000015  14.86999989  46.26999664
H    23.31999969  13.36999989  47.09000015
S    11.72000027  17.30999947  51.12999725
C     9.11000061  17.94999886  51.86999893
C    10.34999943  17.43000031  52.25999832
C    10.64000034  17.06999969  53.60000229
C     9.63999939  17.20000076  54.56999969
C     8.30999947  17.51000023  54.13999939
C     7.17000008  17.27000046  55.00999832
C     5.91000032  17.64000130  54.61999893
C     5.78999996  18.44000053  53.34999847
C     6.85999966  18.42000008  52.51999664
C     8.13000011  17.95999908  52.77999878
C    12.09000015  16.88999939  53.70999908
C    12.79000092  17.15999985  52.49000168
C    14.17000008  17.20000076  52.36000061
C     4.46000004  19.00000000  52.90999985
H     4.15924168  18.43345642  52.02870941
H     8.85999966  18.40999985  50.91999817
H     9.89000034  16.90999985  55.58000183
H     7.30999994  16.76000023  55.97000122
H     5.07999992  17.54999924  55.31999969
H     6.71000004  18.78000069  51.50000000
H    14.61999989  17.46999931  51.40999603
H     3.74000025  18.92000008  53.73000336
H     4.48000002  20.05000114  52.57999802
S    15.32999992  16.21000099  56.04999924
C    17.89999962  15.72999954  55.19000244
C    16.63999939  16.10999870  54.89999771
C    16.27000046  16.55999947  53.63999939
C    17.20000076  16.62999916  52.70000076
C    18.55999947  16.14999962  53.02000046
C    19.54000092  16.03999901  51.97999954
C    20.81999969  15.64000034  52.29999924
C    21.15999985  15.27999973  53.64999771
C    20.23999977  15.47999954  54.61000061
C    18.92000008  15.88000107  54.29999924
C    14.89999962  16.81999969  53.50999832
C    14.19000053  16.60000038  54.75999832
C    12.81000042  16.79000092  54.82999802
C    22.53999901  14.80000019  54.02999878
H    22.91851234  15.24278831  54.95128250
H    18.06999969  15.26000023  56.14999771
H    16.97999954  16.87999916  51.65999985
H    19.37999916  16.50000000  51.00999832
H    21.55999947  15.57999992  51.50000000
H    20.48000145  15.26999950  55.65000153
H    12.34000015  16.76000023  55.80999756
H    23.22000122  14.98999977  53.18000031
H    22.57999802  13.71999931  54.18000031
