96

S    12.23999977  16.87999916  44.15000153
C     9.59999943  17.38000107  44.95999908
C    10.90999985  16.95999908  45.33000183
C    11.23999977  16.54999924  46.60999680
C    10.24000072  16.42000008  47.51999664
C     8.89000034  16.65999985  47.22000122
C     7.76999998  16.59000015  48.15000153
C     6.46000004  16.97999954  47.81000137
C     6.23000050  17.54999924  46.50000000
C     7.31999969  17.79999924  45.68000031
C     8.59000015  17.25000000  45.96000290
C    12.64999962  16.36999893  46.72000122
C    13.28999996  16.44000053  45.45000076
C    14.63999939  16.20000076  45.35999680
C     4.84000015  17.90999985  46.10000229
H     4.46255541  17.16935539  45.39496231
H     9.48000050  17.97999954  44.06000137
H    10.59999943  16.31000137  48.54000092
H     8.01000023  16.35000038  49.18000031
H     5.65999985  16.88999939  48.54000092
H     7.13999987  18.42000008  44.79999924
H    15.14999962  16.23999977  44.40000153
H     4.15000010  17.87999916  46.95000076
H     4.78999996  18.86999893  45.56000137
S    15.77999973  15.40999985  49.20000076
C    18.37000084  14.78999996  48.40000153
C    17.09000015  15.17000008  48.04000092
C    16.77999878  15.57999992  46.72999954
C    17.84000015  15.65000057  45.81999969
C    19.17000008  15.40999985  46.16000366
C    20.20000076  15.48999977  45.24000168
C    21.42999840  14.93999958  45.61999893
C    21.67000008  14.44000053  46.91999817
C    20.65999985  14.37999916  47.77999878
C    19.40999985  14.84000015  47.44999695
C    15.36000061  15.93999958  46.59000015
C    14.70999908  15.90999985  47.84999847
C    13.35999966  16.13999939  47.88999939
C    23.11000061  14.06000042  47.34000397
H    23.38318634  14.41945648  48.33210373
H    18.50000000  14.39000034  49.40000153
H    17.59000015  16.03999901  44.82999802
H    20.06999969  15.81999969  44.20999908
H    22.25000000  14.89999962  44.91000366
H    20.82999992  13.96999931  48.77999878
H    12.84999943  15.95000076  48.82999802
H    23.69999886  14.55999947  46.56000137
H    23.32999992  12.98999977  47.19999695
S    11.97000027  16.98999977  50.87999725
C     9.27999973  17.31999969  51.59999847
C    10.54999924  16.93000031  51.95000076
C    10.85000038  16.51000023  53.34000015
C     9.86999989  16.45000076  54.29999924
C     8.56000042  16.90000153  53.94000244
C     7.57000017  16.97999954  54.92000198
C     6.32000017  17.43000031  54.61000061
C     5.98999977  17.79000092  53.29000092
C     6.98000002  17.75000000  52.34000397
C     8.27999973  17.23999977  52.58999634
C    12.28000069  16.39000130  53.44999695
C    13.00000000  16.67000008  52.27000427
C    14.40000057  16.53000069  52.15000153
C     4.63999987  18.13999939  52.90000153
H     4.34248877  17.67956543  51.95788193
H     9.11000061  17.93000031  50.72000122
H    10.24000072  16.09000015  55.25000000
H     7.92999983  16.81999969  55.93999863
H     5.73000002  17.78000069  55.45999908
H     6.76000023  18.22000122  51.38999939
H    14.94999981  16.55999947  51.20999908
H     4.07000017  17.71999931  53.74000168
H     4.50000000  19.22000122  52.95000076
S    15.53999996  16.20000076  55.91999817
C    18.06999969  15.43000031  55.20999908
C    16.84999847  15.85999966  54.80999756
C    16.55999947  16.13999939  53.47000122
C    17.50000000  15.97000027  52.50000000
C    18.76000023  15.52000046  52.83000183
C    19.84000015  15.67000008  51.86999893
C    21.11999893  15.17000008  52.08000183
C    21.42999840  14.86999989  53.43999863
C    20.42000008  14.88999939  54.47000122
C    19.06999969  15.18000031  54.20999908
C    15.10000038  16.34000015  53.34999847
C    14.42000008  16.26000023  54.58000183
C    13.03999996  16.21999931  54.64000320
C    22.93000031  14.65999985  53.73000336
H    23.19365692  15.00691605  54.72911835
H    18.31999969  15.36000061  56.25999832
H    17.28999901  16.23999977  51.46999741
H    19.61000061  16.36000061  51.05999756
H    21.83000183  15.27999973  51.25999832
H    20.65000153  14.63999939  55.50000000
H    12.46999931  16.21000099  55.56000137
H    23.57000160  15.29000092  53.09999847
H    23.26999855  13.61999989  53.75999832
