96

S    12.64999962  17.26000023  44.15000153
C     9.90999985  17.15999985  44.68000031
C    11.23999977  16.97999954  45.06999969
C    11.54000092  16.57999992  46.37000275
C    10.47999954  16.46000099  47.28000259
C     9.18000031  16.92000008  46.97999954
C     8.13000011  16.92000008  47.91999817
C     6.91999960  17.29999924  47.57999802
C     6.57999992  17.63000107  46.25999832
C     7.55999994  17.53999901  45.27999878
C     8.90999985  17.25000000  45.66999817
C    12.94999981  16.53000069  46.60999680
C    13.73999977  16.82999992  45.45999908
C    15.11000061  16.87000084  45.43000031
C     5.23000002  18.18000031  45.97000122
H     4.86137199  17.77592850  45.02716446
H     9.57999992  17.35000038  43.67000198
H    10.77000046  16.04999924  48.23999786
H     8.40999985  16.61000061  48.93000031
H     6.15999985  17.25000000  48.36000061
H     7.36000013  17.86000061  44.26000214
H    15.72999954  16.92000008  44.54000092
H     4.55000019  17.94000053  46.79000092
H     5.36000013  19.27000046  45.86000061
S    16.04999924  15.88000107  49.13000107
C    18.78999901  15.46000004  48.33000183
C    17.47999954  15.88999939  48.11000061
C    17.13000107  16.40999985  46.81000137
C    18.07999992  16.45000076  45.81999969
C    19.44000053  16.10000038  46.06999969
C    20.40999985  16.02000046  45.01999664
C    21.73000145  15.69000053  45.30000305
C    22.11999893  15.43000031  46.65000153
C    21.21000099  15.38000011  47.69000244
C    19.82999992  15.62000084  47.36999893
C    15.70000076  16.61999893  46.59000015
C    14.98000050  16.34000015  47.76000214
C    13.60000038  16.36999893  47.77000046
C    23.61000061  15.14999962  46.95999908
H    23.84222221  15.46930790  47.97597885
H    19.07999992  15.13000011  49.31999969
H    17.79000092  16.68000031  44.79999924
H    20.03999901  16.03000069  44.00000000
H    22.43000031  15.73999977  44.47000122
H    21.52000046  14.88000011  48.61999893
H    13.05999947  16.23999977  48.70999908
H    24.26000214  15.62000084  46.20999908
H    23.71999931  14.06000042  46.90999985
S    12.23000050  17.19000053  50.98999786
C     9.55999947  17.45000076  51.72999954
C    10.85999966  17.29999924  52.12999725
C    11.26000023  16.97999954  53.46000290
C    10.21000004  16.75000000  54.36999893
C     8.93999958  17.13999939  54.06999969
C     7.86999989  16.93000031  54.99000168
C     6.63999987  17.42000008  54.65999985
C     6.35999966  18.01000023  53.40999985
C     7.32999992  18.11000061  52.45999908
C     8.60000038  17.60000038  52.74000168
C    12.71000004  16.86000061  53.52000427
C    13.38000107  16.98999977  52.32999802
C    14.80999947  16.82999992  52.18999863
C     5.07999992  18.53999901  53.09000015
H     4.63991976  18.11434746  52.18819809
H     9.23999977  17.59000015  50.70000076
H    10.51000023  16.23999977  55.27000046
H     8.11999989  16.43000031  55.91999817
H     5.84999990  17.38000107  55.40999985
H     7.13000011  18.46999931  51.45999908
H    15.26999950  16.79999924  51.20999908
H     4.28999996  18.39999962  53.83999634
H     5.07000017  19.61000061  52.83000183
S    15.80000019  15.82999992  55.89000320
C    18.48999977  15.34999943  55.14999771
C    17.29999924  15.88000107  54.92000198
C    16.97000122  16.31000137  53.57999802
C    17.97999954  16.40999985  52.63999939
C    19.22999954  15.95999908  52.85999680
C    20.30999947  16.18999863  51.95000076
C    21.59000015  15.67999935  52.28000259
C    21.75000000  15.01000023  53.50000000
C    20.73999786  14.89999962  54.40000153
C    19.50000000  15.40999985  54.16999817
C    15.57999992  16.57999992  53.34000015
C    14.85999966  16.38000107  54.52999878
C    13.48999977  16.51000023  54.64000320
C    23.15999985  14.68000031  54.06999969
H    23.47528648  15.35961628  54.86171722
H    18.64999962  14.67000008  55.98999786
H    17.64999962  16.76000023  51.65999985
H    20.23999977  16.79000092  51.04999924
H    22.44999886  15.93000031  51.66999817
H    20.95999908  14.26000023  55.25000000
H    12.86999893  16.22999954  55.48999786
H    23.87000084  14.68000031  53.22999954
H    23.12000084  13.63999939  54.40000153
