96

S    12.17000008  16.45000076  44.36999893
C     9.44999981  16.84000015  45.00000000
C    10.71000004  16.44000053  45.37000275
C    11.07999992  16.10000038  46.77000046
C    10.06000042  16.13999939  47.65999603
C     8.71999931  16.55999947  47.29999924
C     7.60999966  16.55999947  48.25000000
C     6.32999992  16.90999985  47.85999680
C     6.11999989  17.50000000  46.56999969
C     7.11999989  17.38999939  45.63999939
C     8.43999958  16.92000008  45.93000031
C    12.48000050  15.80999947  46.91999817
C    13.19000053  16.00000000  45.77000046
C    14.51000023  15.82999992  45.77000046
C     4.80999994  17.97000122  46.16000366
H     4.45151281  17.40063858  45.30244064
H     9.36999989  17.11000061  43.95000076
H    10.24000072  15.80000019  48.68000031
H     7.78999996  16.10000038  49.20999908
H     5.55999994  16.69999886  48.60000229
H     6.88000011  17.65999985  44.61999893
H    14.93999958  16.17000008  44.82999802
H     4.15000010  17.79000092  47.02000046
H     4.74000025  19.03000069  45.91999817
S    15.65999985  15.01000023  49.43000031
C    18.30999947  14.52000046  48.75999832
C    17.09000015  14.98999977  48.40999985
C    16.65999985  15.36000061  47.09000015
C    17.61999893  15.22999954  46.05999756
C    18.97999954  14.78999996  46.35000229
C    20.07999802  14.82999992  45.38999939
C    21.37000084  14.61999989  45.86000061
C    21.63999939  14.25000000  47.11000061
C    20.62000084  14.06999969  48.02999878
C    19.27000046  14.44000053  47.71999741
C    15.26000023  15.57000065  46.90000153
C    14.56999969  15.32999992  48.06000137
C    13.17999935  15.44000053  48.13999939
C    23.08000183  13.89999962  47.48000336
H    23.46018410  14.50255299  48.30492401
H    18.56999969  14.06000042  49.71000290
H    17.42000008  15.62000084  45.06000137
H    19.88000107  14.96000099  44.33000183
H    22.14999962  14.30999947  45.17000198
H    20.88999939  13.78999901  49.03999710
H    12.67000008  15.05000019  49.02000046
H    23.75000000  14.07999992  46.62000275
H    23.19000053  12.84000015  47.72999573
S    16.14999962  12.36999989  52.49000168
C    18.78000069  11.90999985  51.68000031
C    17.45000076  11.77000046  51.40999603
C    16.90000153  11.26999950  50.20999908
C    17.75000000  10.84000015  49.20999908
C    19.11999893  10.88000107  49.41999817
C    20.05000114  10.36000061  48.41999817
C    21.35999870  10.11000061  48.75000000
C    21.83000183  10.67000008  49.99000168
C    21.02999878  11.36999989  50.93000031
C    19.62000084  11.30000019  50.70999908
C    15.43000031  11.52999973  50.10000229
C    14.92000008  12.13000107  51.31000137
C    13.59000015  12.56000042  51.36000061
C    23.26000023  10.48999977  50.33000183
H    23.49563789  10.78990173  51.35109711
H    19.11000061  12.42000008  52.57999802
H    17.43999863  10.60999966  48.20000076
H    19.63999939   9.94000053  47.50999832
H    22.07999992   9.55999947  48.15000153
H    21.34000015  11.69000053  51.91999817
H    13.12000084  13.07000065  52.18999863
H    23.59000015   9.46000004  50.18000031
H    23.85999870  11.10000038  49.62999725
S    12.09000015  11.89000034  47.71999741
C     9.53999996  12.53000069  48.53000259
C    10.88999939  12.38000011  48.80000305
C    11.35000038  12.55000019  50.12000275
C    10.50000000  12.97999954  51.18000031
C     9.13000011  13.30999947  50.86999893
C     8.19000053  13.90999985  51.73999786
C     6.94000006  14.23999977  51.36000061
C     6.48000002  13.80000019  50.06000137
C     7.32999992  13.21000004  49.19000244
C     8.69999981  13.09999943  49.52999878
C    12.79000092  12.35000038  50.20000076
C    13.35999966  11.92999935  48.99000168
C    14.65000057  11.47999954  48.88999939
C     5.03000021  13.94999981  49.65000153
H     4.83919001  13.70972061  48.60407639
H     9.11000061  12.18999958  47.58999634
H    10.97000027  13.30999947  52.09999847
H     8.63000011  14.19000053  52.70000076
H     6.30999994  14.57999992  52.16999817
H     6.93000031  12.84000015  48.23999786
H    15.01000023  11.18999958  47.90999985
H     4.61999989  14.93000031  49.93000031
H     4.42999983  13.22000027  50.20999908
