96

S    12.09000015  16.88999939  44.31999969
C     9.36999989  17.20000076  45.11000061
C    10.65999985  16.84999847  45.37000275
C    11.00000000  16.57999992  46.73999786
C    10.05000019  16.46999931  47.68000031
C     8.71999931  16.79999924  47.41000366
C     7.67000008  16.77000046  48.36999893
C     6.37000036  17.13000107  48.08000183
C     6.03999996  17.63000107  46.77999878
C     7.04999971  17.68000031  45.84999847
C     8.39999962  17.17000008  46.11000061
C    12.44999981  16.39000130  46.84999847
C    13.21000004  16.54999924  45.61999893
C    14.61999989  16.43000031  45.61000061
C     4.67999983  18.04999924  46.35000229
H     4.36998367  17.38671112  45.54251480
H     9.02999973  17.56999969  44.15000153
H    10.36000061  16.07999992  48.63999939
H     7.77999973  16.46000099  49.40000153
H     5.68000031  17.06999969  48.92000198
H     6.83000040  17.97999954  44.81999969
H    15.14000034  16.60000038  44.68000031
H     3.96000004  18.09999847  47.18000031
H     4.76000023  19.05999947  45.91999817
S    15.67000008  15.57999992  49.27999878
C    18.32999992  15.22999954  48.55999756
C    17.05999947  15.67999935  48.27000046
C    16.72999954  16.13999939  46.93999863
C    17.81999969  16.18999863  46.00000000
C    19.06999969  15.71000004  46.33999634
C    20.15999985  15.70000076  45.40999985
C    21.45000076  15.29000092  45.68000031
C    21.75000000  14.80999947  46.98999786
C    20.71000099  14.75000000  47.90999985
C    19.37000084  15.21999931  47.61000061
C    15.32999992  16.21999931  46.77000046
C    14.60999966  15.98000050  47.94000244
C    13.21000004  16.05999947  47.95999908
C    23.16999817  14.45000076  47.29999924
H    23.62718582  15.15656471  47.99271011
H    18.50000000  14.73000050  49.51000214
H    17.60000038  16.52000046  44.99000168
H    19.85000038  16.03999901  44.43000031
H    22.21999931  15.36000061  44.92000198
H    20.75000000  14.39000034  48.94000244
H    12.75000000  15.95000076  48.93000031
H    23.82999802  14.32999992  46.44000244
H    23.09000015  13.48999977  47.81999969
S    16.21000099  13.00000000  52.36999893
C    18.88000107  12.55000019  51.42000198
C    17.46999931  12.48000050  51.24000168
C    16.97999954  11.94000053  50.04000092
C    17.86999893  11.59999943  49.09999847
C    19.26000023  11.54999924  49.26000214
C    20.20999908  11.06999969  48.34000015
C    21.57999992  10.97000027  48.54000092
C    22.10000038  11.46999931  49.79000092
C    21.21999931  12.06999969  50.70000076
C    19.79999924  12.11999989  50.40000153
C    15.54999924  12.17000008  49.94999695
C    15.03999901  12.68000031  51.11000061
C    13.71000099  13.07999992  51.13999939
C    23.55999947  11.09000015  50.20000076
H    23.82057762  11.45622063  51.19301605
H    19.29000092  12.74000072  52.41000366
H    17.43000031  11.46000004  48.11000061
H    19.85000038  10.47999954  47.50000000
H    22.19000053  10.29000092  47.95999908
H    21.50000000  12.35000038  51.70999908
H    13.38999939  13.43999958  52.11999893
H    23.61999893   9.98999977  50.20000076
H    24.20000076  11.44999981  49.38000107
S    12.25999928  12.11999989  47.63000107
C     9.56999969  12.69000053  48.41999817
C    10.88999939  12.71999931  48.67000198
C    11.40999985  13.15000057  49.93000031
C    10.47999954  13.52000046  50.86999893
C     9.11999989  13.48999977  50.65999985
C     8.10999966  13.96000004  51.56000137
C     6.76000023  13.94000053  51.25000000
C     6.32000017  13.53999996  49.97000122
C     7.21000004  13.05999947  49.06000137
C     8.60000038  13.05999947  49.36000061
C    12.81999969  12.94999981  50.08999634
C    13.38999939  12.42000008  48.88000107
C    14.73000050  12.01000023  48.83999634
C     4.90000010  13.89999962  49.58000183
H     4.58860445  13.41875267  48.65289307
H     9.28999996  12.41000080  47.41000366
H    10.80999947  13.96000004  51.81000137
H     8.48999977  14.47000027  52.43000031
H     6.03999996  14.52000046  51.81999969
H     6.86999989  13.07000065  48.02999878
H    15.19999981  11.76000023  47.88999939
H     4.86999989  14.98999977  49.43999863
H     4.15999985  13.64999962  50.35999680
