96

S    12.28999996  16.94000053  44.34999847
C     9.68000031  17.32999992  45.02999878
C    10.86999989  16.79000092  45.37000275
C    11.19999981  16.36999893  46.69000244
C    10.19000053  16.35000038  47.67000198
C     8.88000011  16.84999847  47.36000061
C     7.82000017  16.98999977  48.33000183
C     6.52999973  17.27000046  47.90999985
C     6.32999992  17.70000076  46.56999969
C     7.36999989  17.79999924  45.70000076
C     8.60000038  17.34000015  46.02000427
C    12.67000008  16.28999901  46.83000183
C    13.40999985  16.46999931  45.66999817
C    14.81999969  16.34000015  45.63999939
C     4.90000010  18.17000008  46.23000336
H     4.44859171  17.59868431  45.41887665
H     9.56999969  17.87999916  44.09999847
H    10.39000034  16.03999901  48.68999863
H     7.90999985  17.02000046  49.41999817
H     5.66999960  17.31999969  48.56999969
H     7.11999989  18.15000153  44.69999695
H    15.36000061  16.44000053  44.69999695
H     4.19999981  18.20000076  47.06999969
H     4.90999985  19.22999954  45.93999863
S    15.90999985  15.76000023  49.38999939
C    18.52000046  15.19000053  48.61999893
C    17.28000069  15.71000004  48.36999893
C    16.93000031  16.09000015  46.95999908
C    17.93000031  16.03999901  45.97999954
C    19.19000053  15.62000084  46.36000061
C    20.20000076  15.60999966  45.34999847
C    21.45999908  15.11000061  45.58000183
C    21.73000145  14.70999908  46.93000031
C    20.82999992  14.85000038  47.94000244
C    19.52999878  15.19000053  47.63000107
C    15.51000023  16.21000099  46.83000183
C    14.82999992  16.25000000  48.02000046
C    13.45999908  16.20000076  48.02000046
C    23.12999916  14.37999916  47.29000092
H    23.55223274  14.99545956  48.08437347
H    18.61999893  14.72000027  49.59000015
H    17.68000031  16.02000046  44.93000031
H    19.98999977  15.92000008  44.33000183
H    22.13999939  15.01999950  44.73999786
H    21.21000099  14.68999958  48.94000244
H    13.02000046  16.10999870  49.01000214
H    23.81999969  14.44000053  46.44000244
H    23.15999985  13.32999992  47.60000229
S    16.06999969  13.15999985  52.12999725
C    18.71000099  12.76999950  51.29000092
C    17.32999992  12.65999985  51.03000259
C    16.87000084  12.11999989  49.79000092
C    17.77000046  11.87000084  48.75000000
C    19.14999962  11.90000057  49.02000046
C    20.10999870  11.40999985  48.09000015
C    21.42000008  11.26000023  48.48999786
C    21.84000015  11.61000061  49.81999969
C    20.95999908  12.18999958  50.68999863
C    19.63999939  12.39999962  50.27000046
C    15.40999985  12.23999977  49.72000122
C    14.84000015  12.79000092  50.91999817
C    13.48000050  13.05999947  51.02000427
C    23.19000053  11.23000050  50.33000183
H    23.36901855  11.50926685  51.36830139
H    19.06999969  12.96000004  52.29999924
H    17.38999939  11.82000065  47.72999573
H    19.85999870  10.84000015  47.19999695
H    22.15999985  10.72999954  47.90999985
H    21.14999962  12.51000023  51.70999908
H    13.07000065  13.43000031  51.95000076
H    23.39999962  10.17000008  50.20000076
H    24.03000069  11.75000000  49.85000229
S    12.05999947  12.10999966  47.42000198
C     9.40999985  12.61999989  48.13999939
C    10.76000023  12.68000031  48.47000122
C    11.26000023  13.17999935  49.69999695
C    10.31000042  13.68000031  50.61000061
C     8.93000031  13.53000069  50.40000153
C     7.94000053  14.04999924  51.39999771
C     6.63999987  14.22000027  51.09000397
C     6.17000008  13.71999931  49.82999802
C     7.03000021  13.22000027  48.89999771
C     8.45000076  13.07000065  49.09000015
C    12.69000053  13.00000000  49.81999969
C    13.31999969  12.53000069  48.66000366
C    14.63000107  12.06999969  48.61000061
C     4.77999973  14.06999969  49.34999847
H     4.59090233  13.57543659  48.39723969
H     9.13999939  12.17000008  47.18000031
H    10.62999916  13.96000004  51.60999680
H     8.32999992  14.65999985  52.21000290
H     6.06999969  14.86999989  51.75000000
H     6.61000013  12.94999981  47.93000031
H    15.01000023  11.61000061  47.70000076
H     4.76999998  15.15999985  49.23999786
H     4.00999975  13.81000042  50.08999634
