96

S    16.29999924  15.34000015  60.54000092
C    19.06999969  15.47999954  59.81999969
C    17.76000023  15.13000011  59.56999969
C    17.38000107  14.73999977  58.25000000
C    18.38999939  14.53999996  57.31999969
C    19.75000000  14.85999966  57.56999969
C    20.81999969  14.70000076  56.65000153
C    22.11000061  15.08999920  56.93000031
C    22.47999954  15.60999966  58.20000076
C    21.47999954  15.62999916  59.15000153
C    20.10999870  15.38000011  58.86000061
C    15.93999958  14.77000046  58.02999878
C    15.19999981  15.22999954  59.15000153
C    13.81999969  15.39999962  59.16999817
C    23.90999985  15.95999908  58.50999832
H    24.38763618  15.35404301  59.27992249
H    19.26000023  15.93000031  60.79000092
H    18.18000031  14.32999992  56.27999878
H    20.63999939  14.22000027  55.70000076
H    22.82999992  14.89999962  56.13999939
H    21.71999931  15.77999973  60.20000076
H    13.32999992  15.76000023  60.06000137
H    24.40999985  15.73999977  57.55000305
H    24.09000015  17.02999878  58.68999863
S    12.71000004  14.13000011  55.59999847
C    10.01000023  14.00000000  56.25000000
C    11.26999950  14.45000076  56.58000183
C    11.64000034  15.00000000  57.84999847
C    10.59999943  15.34999943  58.68999863
C     9.26000023  15.06999969  58.29999924
C     8.13000011  15.26999950  59.13999939
C     6.84999990  14.89999962  58.81999969
C     6.57000017  14.14999962  57.64999771
C     7.63000011  13.80000019  56.84999847
C     8.94999981  14.25000000  57.15999985
C    13.07999992  15.03999901  58.02999878
C    13.81999969  14.56999969  56.91999817
C    15.19999981  14.44000053  56.88999939
C     5.17000008  13.66000080  57.34000397
H     4.77111483  14.25832844  56.52086258
H     9.78999996  13.56999969  55.27000046
H    10.76000023  15.97000027  59.55999756
H     8.31999969  15.72000027  60.11000061
H     6.11999989  15.31999969  59.51000214
H     7.40000010  13.38999939  55.87999725
H    15.75000000  14.14000034  56.00000000
H     4.57999992  13.63999939  58.26000214
H     5.36999989  12.63000011  57.02999878
S    13.89999962  12.18000031  52.54000092
C    11.23000050  11.71000004  53.13000107
C    12.53999901  11.50000000  53.46000290
C    12.97000027  10.93999958  54.71000290
C    12.00000000  10.39999962  55.54999924
C    10.65000057  10.52999973  55.17000198
C     9.63999939  10.08999920  56.07999802
C     8.30000019  10.14000034  55.79000092
C     7.94000053  10.80999947  54.59999847
C     8.82999992  11.26999950  53.66000366
C    10.21999931  11.09000015  53.92000198
C    14.37999916  11.21000099  54.92000198
C    15.01999950  11.94000053  53.88999939
C    16.36000061  12.30000019  54.00000000
C     6.50000000  11.23000050  54.40000153
H     6.02456570  10.62683773  53.62652969
H    10.95000076  12.35000038  52.29999924
H    12.32999992   9.89000034  56.45000076
H     9.96000004   9.61999989  57.00000000
H     7.60999966   9.78999996  56.56000137
H     8.52999973  11.85999966  52.80000305
H    16.77000046  12.79000092  53.11999893
H     6.03999996  11.16000080  55.38999939
H     6.54999971  12.30999947  54.20000076
S    17.57999992  10.51000023  57.32999802
C    20.31999969  10.98999977  56.72999954
C    18.97999954  11.16000080  56.45000076
C    18.56999969  11.75000000  55.20999908
C    19.51000023  12.11999989  54.26000214
C    20.88000107  11.87000084  54.47000122
C    21.80000114  12.44999981  53.54999924
C    23.11000061  12.53000069  53.97999573
C    23.57000160  12.09000015  55.24000168
C    22.65999985  11.49000072  56.09000397
C    21.27000046  11.42000008  55.77999878
C    17.13000107  11.84000015  55.07999802
C    16.45000076  11.13000011  56.11000061
C    15.13000011  10.72000027  56.00000000
C    24.89000130  12.65999985  55.70999908
H    25.37377357  12.12642670  56.52814484
H    20.63999939  10.64000034  57.70999908
H    19.17000008  12.46999931  53.29000092
H    21.47999954  13.07000065  52.71999741
H    23.82999802  13.09999943  53.39000320
H    22.92000008  11.38000011  57.14000320
H    14.75000000  10.06000042  56.77000046
H    24.77000046  13.71000099  56.00000000
H    25.56999969  12.67000008  54.86000061
