96

S    16.46999931  15.90000057  60.40999985
C    19.18000031  16.06999969  59.68000031
C    17.92000008  15.59000015  59.43000031
C    17.56999969  15.08999920  58.13999939
C    18.48999977  15.01000023  57.09999847
C    19.81999969  15.40999985  57.36999893
C    20.85000038  15.19999981  56.40999603
C    22.15999985  15.52999973  56.68000031
C    22.49000168  16.11999893  57.93000031
C    21.52000046  16.28000069  58.89999771
C    20.17000008  15.90999985  58.68000031
C    16.13000107  14.96000099  57.98999786
C    15.38000011  15.52000046  59.05000305
C    14.00000000  15.67999935  59.06000137
C    23.92999840  16.45000076  58.25000000
H    24.44784546  15.88249779  59.02322388
H    19.40000153  16.56999969  60.61999893
H    18.20999908  14.48999977  56.18999863
H    20.55000114  14.68000031  55.50000000
H    22.93999863  15.43000031  55.93000031
H    21.84999847  16.72999954  59.82999802
H    13.38000107  15.76000023  59.94999695
H    24.53000069  16.31000137  57.35000229
H    24.10000038  17.50000000  58.50000000
S    12.94999981  14.34999943  55.47999954
C    10.25000000  14.09999943  56.26999664
C    11.54000092  14.52000046  56.53999710
C    11.87000084  14.98999977  57.84999847
C    10.93000031  15.19000053  58.83999634
C     9.56999969  14.89999962  58.54999924
C     8.52000046  15.15999985  59.47000122
C     7.18999958  15.01000023  59.15000153
C     6.89000034  14.42999935  57.88999939
C     7.88000011  14.14000034  56.97999954
C     9.26000023  14.39000034  57.23999786
C    13.30000019  15.26000023  57.93000031
C    14.04000092  14.80999947  56.81000137
C    15.40999985  14.57999992  56.84999847
C     5.47999954  14.02999973  57.52999878
H     5.08397770  14.63817596  56.71673965
H     9.98000050  13.61999989  55.33000183
H    11.23000050  15.67000008  59.77000427
H     8.75000000  15.40999985  60.50000000
H     6.43000031  15.36000061  59.84000397
H     7.75000000  13.71000099  56.00000000
H    15.88999939  14.15999985  55.97000122
H     4.82999992  14.22000027  58.39000320
H     5.55000019  12.97999954  57.21000290
S    13.81999969  12.51999950  52.50999832
C    11.18999958  11.85999966  53.16999817
C    12.53000069  11.73999977  53.43999863
C    13.04999924  11.19999981  54.65999985
C    12.15999985  10.59999943  55.54000092
C    10.77000046  10.69000053  55.30000305
C     9.77999973  10.25000000  56.23000336
C     8.43999958  10.44000053  56.00999832
C     7.97999954  11.07999992  54.82999802
C     8.89000034  11.47999954  53.87000275
C    10.27999973  11.28999901  54.09000015
C    14.42999935  11.57999992  54.91000366
C    14.98999977  12.30999947  53.82999802
C    16.35000038  12.55000019  53.70999908
C     6.57999992  11.64000034  54.75000000
H     5.97343206  11.17615414  53.97216797
H    10.81999969  12.35000038  52.27000427
H    12.68000031  10.01000023  56.29000092
H     9.98999977   9.78999996  57.19999695
H     7.76000023  10.24000072  56.84000015
H     8.56000042  12.07999992  53.02999878
H    16.84000015  12.72999954  52.76000214
H     6.06999969  11.46999931  55.70999908
H     6.63000011  12.71000004  54.54000092
S    17.77000046  10.81999969  57.05999756
C    20.43000031  11.35000038  56.26999664
C    19.07999992  11.51999950  56.09000397
C    18.60999870  12.02999973  54.82999802
C    19.54000092  12.43000031  53.89999771
C    20.94000053  12.38999939  54.09999847
C    21.93000031  12.81000042  53.15999985
C    23.26000023  12.82999992  53.50000000
C    23.62999916  12.41000080  54.80999756
C    22.78000069  11.72999954  55.65999985
C    21.40000153  11.80999947  55.34000015
C    17.15999985  12.13000107  54.78000259
C    16.60000038  11.50000000  55.91999817
C    15.22999954  11.26999950  56.02000427
C    25.00000000  12.84999943  55.27000046
H    25.44027328  12.23929977  56.05823135
H    20.75000000  10.86999989  57.18999863
H    19.13999939  12.88000011  52.98999786
H    21.65999985  13.22000027  52.18999863
H    23.92999840  13.30999947  52.80000305
H    23.02999878  11.39999962  56.65999985
H    14.85000038  10.52999973  56.70999908
H    24.79999924  13.83999920  55.68000031
H    25.65000153  12.94999981  54.40000153
