96

S    16.54999924  15.60999966  60.40000153
C    19.27000046  15.55999947  59.75000000
C    17.97000122  15.29999924  59.38000107
C    17.61999893  14.73000050  58.11999893
C    18.65999985  14.47999954  57.25000000
C    19.96000099  14.96000099  57.52999878
C    21.00000000  14.96999931  56.55000305
C    22.29999924  15.29999924  56.84999847
C    22.57999802  15.90000057  58.11000061
C    21.61000061  16.07999992  59.06999969
C    20.34000015  15.48999977  58.81000137
C    16.17000008  14.70999908  57.98999786
C    15.43000031  15.25000000  59.06999969
C    14.04999924  15.36000061  59.08000183
C    24.00000000  16.32999992  58.39000320
H    24.44993210  15.72294998  59.17559433
H    19.48999977  16.14999962  60.63999939
H    18.29000092  14.14000034  56.27999878
H    20.81000137  14.80000019  55.50000000
H    23.09999847  15.19000053  56.12999725
H    21.90999985  16.52000046  60.00999832
H    13.43999958  15.62000084  59.93999863
H    24.59000015  16.51000023  57.48000336
H    23.87000084  17.31999969  58.82999802
S    13.04999924  13.97999954  55.41999817
C    10.31999969  14.06999969  56.05999756
C    11.61999893  14.30999947  56.42000198
C    11.95000076  14.88999939  57.69000244
C    10.93000031  15.26000023  58.54999924
C     9.57999992  14.96000099  58.25000000
C     8.56000042  15.15999985  59.22000122
C     7.26999998  14.70000076  59.05000305
C     6.97000027  13.97999954  57.87000275
C     7.96000004  13.78000069  56.93999863
C     9.30999947  14.22999954  57.04000092
C    13.38999939  14.96000099  57.90999985
C    14.07999992  14.48999977  56.77000046
C    15.44999981  14.26000023  56.86999893
C     5.55999994  13.50999928  57.56999969
H     5.03212214  14.10921192  56.82811737
H    10.11999989  13.80000019  55.01999664
H    11.31000042  15.75000000  59.45000076
H     8.82000065  15.65999985  60.13999939
H     6.44999981  14.82999992  59.75999832
H     7.67000008  13.31999969  55.98999786
H    15.90999985  13.82999992  55.98999786
H     4.96000004  13.53000069  58.48999786
H     5.50000000  12.46000099  57.25999832
S    13.27999973  12.11999989  52.44999695
C    10.59999943  11.64000034  53.02999878
C    11.92000008  11.39000034  53.33000183
C    12.38000011  10.71000004  54.51000214
C    11.43000031  10.19999981  55.35999680
C    10.06000042  10.46000004  55.13000107
C     9.01000023   9.90999985  55.91999817
C     7.67000008  10.14999962  55.72999954
C     7.26000023  11.00000000  54.66999817
C     8.23000050  11.36999989  53.76999664
C     9.63000011  11.18999958  53.95999908
C    13.81999969  10.82999992  54.69999695
C    14.44000053  11.59000015  53.67000198
C    15.75000000  12.06999969  53.69999695
C     5.79999971  11.31999969  54.45000076
H     5.30184937  10.69375420  53.70989227
H    10.29000092  12.10000038  52.09999847
H    11.69999981   9.59999943  56.23000336
H     9.25000000   9.19999981  56.70000076
H     6.94999981   9.57999992  56.30000305
H     7.88999987  11.87999916  52.85999680
H    16.18000031  12.75000000  52.97999954
H     5.26999998  11.11999989  55.38000107
H     5.75000000  12.36999989  54.12000275
S    17.09000015  10.44999981  57.12999725
C    19.73999977  11.09000015  56.52999878
C    18.42000008  11.05999947  56.13999939
C    17.95999908  11.76000023  54.97000122
C    18.93000031  12.32999992  54.16999817
C    20.31999969  12.25999928  54.43999863
C    21.38999939  12.76000023  53.63999939
C    22.70999908  12.48000050  53.88000107
C    23.11000061  11.68000031  54.99000168
C    22.10000038  11.28999901  55.84000015
C    20.72000122  11.61000061  55.65999985
C    16.52000046  11.61999893  54.79000092
C    15.95999908  10.82999992  55.81999969
C    14.60999966  10.47999954  55.79999924
C    24.54999924  11.28000069  55.18000031
H    24.98420334  11.62166977  56.11959076
H    20.06999969  10.53999996  57.41000366
H    18.53999901  12.77999973  53.26000214
H    21.02000046  13.26000023  52.75000000
H    23.48999977  12.71000004  53.15000153
H    22.30999947  10.70000076  56.72000122
H    14.14999962   9.89000034  56.58000183
H    25.15000153  11.65999985  54.34999847
H    24.68000031  10.21000004  54.99000168
