96

S    16.95000076  16.42000008  60.11000061
C    19.70000076  16.32999992  59.47999954
C    18.38999939  16.13000107  59.10999680
C    18.15000153  15.54999924  57.83000183
C    19.17000008  15.32999992  56.93000031
C    20.52999878  15.52000046  57.29999924
C    21.61999893  15.17000008  56.45999908
C    22.92000008  15.43000031  56.83000183
C    23.15999985  16.01000023  58.09999847
C    22.13999939  16.28000069  58.99000168
C    20.78000069  16.03999901  58.61000061
C    16.73999977  15.18000031  57.77000046
C    15.95999908  15.72999954  58.81000137
C    14.57999992  15.85000038  58.94000244
C    24.57999992  16.21000099  58.55999756
H    24.82891083  15.67662144  59.47741318
H    19.88999939  16.80999947  60.44000244
H    18.82999992  15.14000034  55.90999985
H    21.37000084  14.82999992  55.45000076
H    23.75000000  15.14000034  56.18999863
H    22.30999947  16.61999893  60.00999832
H    14.13000011  16.29999924  59.81999969
H    25.26000023  15.80999947  57.78999710
H    24.77000046  17.27000046  58.75999832
S    13.57999992  14.42999935  55.34999847
C    10.85000038  14.70999908  55.90000153
C    12.15000057  14.96000099  56.25999832
C    12.43999958  15.62999916  57.49000168
C    11.38000011  15.86999989  58.34999847
C    10.05000019  15.46000004  58.06999969
C     9.01000023  15.55999947  59.03999710
C     7.76999998  15.03000069  58.81000137
C     7.48000050  14.42000008  57.56000137
C     8.46000004  14.34000015  56.59999847
C     9.76000023  14.88999939  56.77999878
C    13.86000061  15.48999977  57.78999710
C    14.60000038  14.98999977  56.69000244
C    15.97000027  14.73999977  56.69000244
C     6.11000013  13.83999920  57.29000092
H     5.57145357  14.48483849  56.59555817
H    10.82999992  14.15999985  54.95999908
H    11.56000042  16.17000008  59.38000107
H     9.31999969  16.02000046  59.98000336
H     6.91999960  15.07999992  59.48999786
H     8.18000031  13.73999977  55.72999954
H    16.46999931  14.37999916  55.79999924
H     5.38999987  13.78000069  58.11999893
H     6.25999975  12.84999943  56.84000015
S    17.19000053  16.48999977  54.12000275
C    19.93000031  16.59000015  53.56999969
C    18.65999985  16.25000000  53.15999985
C    18.39999962  15.71000004  51.86000061
C    19.40000153  15.65999985  50.90999985
C    20.69999886  16.03000069  51.32999802
C    21.83000183  15.67000008  50.54000092
C    23.09999847  15.97000027  50.97000122
C    23.36000061  16.59000015  52.22000122
C    22.32999992  16.80999947  53.09999847
C    21.01000023  16.54000092  52.63999939
C    16.97999954  15.43000031  51.70000076
C    16.18999863  15.84000015  52.80000305
C    14.81999969  16.04999924  52.72999573
C    24.79999924  16.92000008  52.56999969
H    25.25036430  16.26232338  53.31346130
H    20.02000046  17.00000000  54.56999969
H    19.18000031  15.13000011  49.99000168
H    21.68999863  15.07999992  49.64000320
H    23.88000107  15.57999992  50.31999969
H    22.40999985  17.11000061  54.13999939
H    14.26000023  16.39999962  53.59000397
H    25.38999939  16.84999847  51.65000153
H    24.75000000  17.94000053  52.97000122
S    13.99000072  14.73999977  49.08000183
C    11.26000023  14.59000015  49.55999756
C    12.48999977  15.06000042  49.97000122
C    12.72999954  15.52000046  51.30000305
C    11.67000008  15.67000008  52.18000031
C    10.39000034  15.31000042  51.70999908
C     9.23999977  15.48999977  52.52999878
C     7.99000025  15.01000023  52.22000122
C     7.82999992  14.32999992  50.98999786
C     8.84000015  14.25000000  50.06000137
C    10.14000034  14.68999958  50.43000031
C    14.14000034  15.75000000  51.53999710
C    14.94999981  15.26000023  50.48999786
C    16.32999992  15.07999992  50.51000214
C     6.42000008  13.80000019  50.84000015
H     5.85753727  14.41230106  50.13514328
H    11.18999958  14.02999973  48.62999725
H    11.75000000  16.10999870  53.16999817
H     9.38000011  15.90999985  53.52000427
H     7.11000013  15.07999992  52.85999680
H     8.75000000  13.73999977  49.09999847
H    16.97999954  14.81999969  49.68000031
H     5.89999962  13.88000011  51.79999924
H     6.48000002  12.77999973  50.45000076
