96

S    16.92000008  15.92000008  60.26000214
C    19.64999962  15.93999958  59.61000061
C    18.36000061  15.57999992  59.27999878
C    18.06999969  15.05000019  57.98999786
C    19.06999969  14.91000080  57.04000092
C    20.40999985  15.25000000  57.34000397
C    21.40999985  15.36999893  56.32999802
C    22.69000053  15.71000004  56.72000122
C    23.01000214  16.18999863  58.02000046
C    21.97999954  16.23999977  58.93000031
C    20.68000031  15.70000076  58.67000198
C    16.62999916  14.98000050  57.80000305
C    15.88999939  15.48999977  58.88999939
C    14.50000000  15.52999973  58.96999741
C    24.38999939  16.62999916  58.41999817
H    24.86661911  16.03956223  59.20250702
H    19.86999893  16.53000069  60.48999786
H    18.84000015  14.72000027  55.98999786
H    21.15999985  15.26999950  55.27999878
H    23.43000031  15.80000019  55.93000031
H    22.10000038  16.72999954  59.88999939
H    14.01000023  16.02000046  59.80999756
H    25.02000046  16.57999992  57.51999664
H    24.30000114  17.71000099  58.61999893
S    13.38000107  14.19000053  55.43000031
C    10.72000027  14.26000023  56.00999832
C    11.97999954  14.61999989  56.43000031
C    12.30999947  15.01999950  57.76000214
C    11.26000023  15.34000015  58.60000229
C     9.94000053  14.96000099  58.23999786
C     8.90999985  15.13000011  59.20999908
C     7.57999992  14.91000080  58.89999771
C     7.31999969  14.34999943  57.62000275
C     8.30999947  14.04000092  56.72000122
C     9.65999985  14.46000004  56.91999817
C    13.76000023  15.01000023  57.90999985
C    14.47999954  14.57999992  56.77000046
C    15.86999989  14.46000004  56.75000000
C     5.89999962  14.00000000  57.25000000
H     5.43092394  14.83154297  56.72406769
H    10.60999966  13.81999969  55.01999664
H    11.46000004  15.81999969  59.54999924
H     9.13999939  15.65000057  60.13000107
H     6.88000011  15.08999920  59.71000290
H     8.02999973  13.53999996  55.79000092
H    16.43000031  14.01000023  55.93000031
H     5.36999989  13.82999992  58.20000076
H     5.86999989  13.09999943  56.63000107
S    17.17000008  16.13000107  54.08000183
C    19.82999992  16.50000000  53.31999969
C    18.57999992  16.02000046  53.00000000
C    18.30999947  15.47999954  51.70999908
C    19.34000015  15.22999954  50.81999969
C    20.66999817  15.55999947  51.16000366
C    21.80999947  15.31999969  50.34000015
C    23.08000183  15.67999935  50.68999863
C    23.28000069  16.21000099  52.00000000
C    22.22999954  16.48999977  52.84000015
C    20.89999962  16.18000031  52.43999863
C    16.87999916  15.24000072  51.56000137
C    16.14999962  15.54999924  52.74000168
C    14.77000046  15.54999924  52.81999969
C    24.64999962  16.72000122  52.38999939
H    25.20315170  15.98246479  52.97151566
H    19.98999977  16.95000076  54.29000092
H    19.11999893  14.73000050  49.87999725
H    21.65999985  15.05000019  49.29999924
H    23.95000076  15.67999935  50.04000092
H    22.32999992  17.05000114  53.76999664
H    14.25000000  15.93000031  53.69999695
H    25.22000122  16.93000031  51.46999741
H    24.51000023  17.68000031  52.90000153
S    13.68000031  14.73999977  49.06000137
C    10.95999908  14.55000019  49.82999802
C    12.28000069  14.75999928  50.14999771
C    12.61999989  15.21999931  51.46999741
C    11.67000008  15.53999996  52.42000198
C    10.31999969  15.27999973  52.06999969
C     9.28999996  15.50000000  53.02999878
C     7.96999979  15.18000031  52.81000137
C     7.62000036  14.70000076  51.52999878
C     8.55000019  14.57999992  50.52000046
C     9.92999935  14.82999992  50.76000214
C    14.06999969  15.29999924  51.63999939
C    14.75999928  15.01000023  50.44000244
C    16.13999939  14.85999966  50.43000031
C     6.19999981  14.25000000  51.25000000
H     5.63027191  14.85533619  50.54496384
H    10.77999973  14.25000000  48.80000305
H    11.90999985  16.03000069  53.34999847
H     9.72999954  15.90999985  53.94000244
H     7.34000015  15.34999943  53.68000031
H     8.19000053  14.22999954  49.54999924
H    16.64999962  14.67000008  49.48999786
H     5.75999975  14.34000015  52.25000000
H     6.15000010  13.21000004  50.89000320
