96

S    16.50000000  16.02000046  60.22999573
C    19.19999886  16.10999870  59.54999924
C    17.94000053  15.65999985  59.26000214
C    17.59000015  15.07999992  57.98999786
C    18.64999962  14.73000050  57.18000031
C    19.95000076  15.21999931  57.43000031
C    21.04000092  14.94999981  56.56000137
C    22.36999893  15.21000004  56.79000092
C    22.63999939  16.02000046  57.93000031
C    21.63000107  16.32999992  58.80000305
C    20.27000046  15.95999908  58.62999725
C    16.14999962  15.15999985  57.76000214
C    15.42000008  15.65000057  58.87000275
C    14.04999924  15.88999939  58.81000137
C    24.09000015  16.36999893  58.15999985
H    24.47454262  15.74333954  58.96469116
H    19.50000000  16.39999962  60.54999924
H    18.64999962  14.19999981  56.22000122
H    20.73999786  14.37000084  55.70000076
H    23.15000153  14.80000019  56.16000366
H    21.80999947  16.79999924  59.77000427
H    13.59000015  16.29999924  59.69999695
H    24.68000031  16.14999962  57.25999832
H    24.11000061  17.43999863  58.40000153
S    13.07000065  14.29999924  55.27999878
C    10.36000061  14.32000065  56.00000000
C    11.64999962  14.75999928  56.23000336
C    11.90999985  15.44999981  57.45999908
C    10.97000027  15.70000076  58.43999863
C     9.64999962  15.22999954  58.20999908
C     8.57999992  15.36000061  59.13999939
C     7.28999996  14.93000031  58.95000076
C     6.98000002  14.35999966  57.69000244
C     8.01999950  14.13000011  56.81000137
C     9.35999966  14.56999969  56.95999908
C    13.35999966  15.50000000  57.65999603
C    14.07999992  14.92000008  56.59000015
C    15.46000004  14.77000046  56.59999847
C     5.55000019  14.37000084  57.18999863
H     5.30020475  15.15507030  56.47629929
H    10.01999950  13.81000042  55.10000229
H    11.26999950  16.01000023  59.43000031
H     8.85999966  15.80000019  60.10000229
H     6.51999998  15.21000004  59.65999985
H     7.86000013  13.67000008  55.84000015
H    16.00000000  14.27999973  55.79000092
H     4.90000010  14.52000046  58.06000137
H     5.44000053  13.45000076  56.59999847
S    17.36999893  15.93999958  54.27000046
C    20.00999832  16.29999924  53.56999969
C    18.78000069  15.80999947  53.20000076
C    18.47999954  15.39000034  51.86999893
C    19.47999954  15.19999981  50.93999863
C    20.78000069  15.65000057  51.27999878
C    21.87999916  15.53999996  50.38000107
C    23.16999817  15.93000031  50.68000031
C    23.38999939  16.43000031  51.97999954
C    22.36000061  16.61000061  52.88000107
C    21.02000046  16.22999954  52.56999969
C    17.02999878  15.29000092  51.72999954
C    16.29999924  15.69000053  52.88000107
C    14.92000008  15.80999947  52.90999985
C    24.77999878  16.90999985  52.31999969
H    25.22082520  16.31986237  53.12343597
H    20.17999840  16.67000008  54.58000183
H    19.27999878  14.84000015  49.93000031
H    21.64999962  15.21999931  49.36999893
H    24.02000046  15.80999947  50.00999832
H    22.72000122  16.95999908  53.83999634
H    14.44000053  16.23999977  53.79000092
H    25.46999931  16.86000061  51.45999908
H    24.67000008  17.94999886  52.65999603
S    13.78000069  14.70999908  49.25000000
C    11.07999992  14.78999996  49.91000366
C    12.38000011  15.03999901  50.28999710
C    12.71000004  15.48999977  51.60999680
C    11.68000031  15.73999977  52.50000000
C    10.34000015  15.48999977  52.14000320
C     9.30999947  15.78999996  53.09000015
C     8.00000000  15.65999985  52.70000076
C     7.69999981  14.96000099  51.50000000
C     8.65999985  14.70999908  50.54999924
C    10.01999950  15.03999901  50.81999969
C    14.14999962  15.47000027  51.79000092
C    14.85000038  15.06999969  50.61999893
C    16.21999931  14.88000011  50.66999817
C     6.30999994  14.40999985  51.30000305
H     5.71392012  14.95640659  50.56909561
H    10.80000019  14.37999916  48.94000244
H    11.95000076  16.04999924  53.50999832
H     9.64999962  16.06999969  54.08000183
H     7.18999958  15.78999996  53.40999985
H     8.43999958  14.26000023  49.58000183
H    16.75000000  14.48999977  49.79999924
H     5.82999992  14.27999973  52.28000259
H     6.53999996  13.40000057  50.93999863
