96

S    16.54000092  15.54999924  60.54000092
C    19.27999878  15.62000084  59.79000092
C    17.98999977  15.19999981  59.55999756
C    17.61000061  14.89999962  58.20999908
C    18.60999870  14.75000000  57.25999832
C    19.96999931  14.96999931  57.58999634
C    21.02000046  14.85000038  56.63999939
C    22.25000000  15.42000008  56.86000061
C    22.53999901  16.05999947  58.09999847
C    21.63999939  16.04999924  59.13999939
C    20.35000038  15.51000023  58.87000275
C    16.17000008  14.85000038  58.02000046
C    15.46000004  15.34000015  59.15000153
C    14.06999969  15.39999962  59.08000183
C    23.94000053  16.59000015  58.29000092
H    24.52343559  15.93541336  58.93747330
H    19.40999985  16.11999893  60.75000000
H    18.26000023  14.60000038  56.25000000
H    20.95000076  14.30999947  55.70000076
H    23.02000046  15.26000023  56.11000061
H    21.87999916  16.28000069  60.17000198
H    13.48999977  15.62000084  59.97000122
H    24.44000053  16.76000023  57.32999802
H    23.85999870  17.53000069  58.85000229
S    13.12999916  14.32000065  55.33000183
C    10.39999962  14.42000008  55.83000183
C    11.67000008  14.73999977  56.25000000
C    12.01000023  15.03000069  57.61000061
C    11.03000069  15.08999920  58.57999802
C     9.70000076  14.81999969  58.18000031
C     8.64000034  14.96000099  59.10999680
C     7.32999992  14.68999958  58.76999664
C     7.02000046  14.15999985  57.49000168
C     8.03999996  14.09000015  56.56999969
C     9.39999962  14.42000008  56.83000183
C    13.43999958  15.14999962  57.84999847
C    14.17000008  14.78999996  56.69000244
C    15.53999996  14.55999947  56.81000137
C     5.56999969  13.81000042  57.21000290
H     5.17279816  14.26394463  56.30211258
H    10.19999981  14.04000092  54.82999802
H    11.23999977  15.22999954  59.64000320
H     8.82999992  15.31000042  60.12000275
H     6.50000000  14.73999977  59.47000122
H     7.76999998  13.73999977  55.58000183
H    16.06999969  14.14999962  55.96000290
H     4.96000004  13.94999981  58.11000061
H     5.52999973  12.71999931  57.12999725
S    17.35000038  16.00000000  54.18000031
C    20.09000015  16.18999863  53.56999969
C    18.81000137  15.84000015  53.18999863
C    18.45999908  15.54999924  51.83000183
C    19.44000053  15.57999992  50.84999847
C    20.75000000  15.93000031  51.24000168
C    21.80000114  15.95000076  50.27999878
C    23.11000061  16.21999931  50.61000061
C    23.44000053  16.61999893  51.93000031
C    22.46000099  16.57999992  52.90000153
C    21.11999893  16.21999931  52.60000229
C    17.02999878  15.44000053  51.58000183
C    16.31999969  15.80999947  52.75000000
C    14.93999958  15.95000076  52.69000244
C    24.77999878  17.14999962  52.39999771
H    25.32977295  16.40744972  52.97832870
H    20.35000038  16.68000031  54.51000214
H    19.11000061  15.36999893  49.82999802
H    21.45999908  15.71000004  49.27999878
H    23.94000053  16.21000099  49.91000366
H    22.72000122  16.82999992  53.93000031
H    14.40000057  16.36000061  53.54000092
H    25.36999893  17.46999931  51.52999878
H    24.61999893  18.04999924  53.01000214
S    13.94999981  15.11000061  48.96999741
C    11.16000080  15.03000069  49.48999786
C    12.46000099  15.19999981  49.93000031
C    12.81999969  15.42000008  51.29000092
C    11.82999992  15.72999954  52.19999695
C    10.47000027  15.59999943  51.81000137
C     9.43000031  15.92000008  52.72999573
C     8.10000038  15.65000057  52.49000168
C     7.79999971  14.91000080  51.31999969
C     8.78000069  14.78999996  50.35999680
C    10.14999962  15.18000031  50.47000122
C    14.25000000  15.62999916  51.52000046
C    15.03000069  15.42000008  50.34999847
C    16.39999962  15.19999981  50.35999680
C     6.38000011  14.40999985  51.22000122
H     5.85362053  14.82256794  50.35929871
H    11.02000046  14.47000027  48.56999969
H    12.02999973  16.13999939  53.18000031
H     9.68999958  16.32999992  53.69999695
H     7.42000008  15.70000076  53.33000183
H     8.65999985  14.34999943  49.38000107
H    16.95000076  15.03999901  49.43999863
H     5.86999989  14.68999958  52.15000153
H     6.42000008  13.31999969  51.30000305
