96

S    16.39000130  15.67999935  60.40000153
C    19.09000015  15.72999954  59.65999985
C    17.80999947  15.26999950  59.43000031
C    17.40999985  14.63000107  58.20999908
C    18.39999962  14.40000057  57.28000259
C    19.75000000  14.77000046  57.47000122
C    20.76999855  14.55999947  56.49000168
C    22.01999855  15.08999920  56.68000031
C    22.32999992  15.77999973  57.88000107
C    21.42000008  15.90999985  58.89999771
C    20.06999969  15.52999973  58.64999771
C    15.97000027  14.65999985  58.00000000
C    15.26999950  15.07999992  59.15999985
C    13.88000011  15.15999985  59.20999908
C    23.78999901  16.05999947  58.15999985
H    24.25805092  15.26572895  58.74151611
H    19.37999916  16.21999931  60.58000183
H    18.09000015  13.99000072  56.31999969
H    20.42000008  14.11999893  55.56000137
H    22.76000023  14.86999989  55.91999817
H    21.64999962  16.22999954  59.91000366
H    13.32999992  15.51000023  60.07999802
H    24.34000015  16.42000008  57.28000259
H    23.71999931  16.97000122  58.77999878
S    12.81999969  13.89000034  55.56000137
C    10.13000011  13.75000000  56.25000000
C    11.39999962  14.14999962  56.59999847
C    11.72000027  14.60999966  57.91999817
C    10.70000076  14.73999977  58.83999634
C     9.38000011  14.32999992  58.54000092
C     8.27000046  14.44000053  59.41999817
C     7.00999975  14.01999950  59.03999710
C     6.80000019  13.45000076  57.76000214
C     7.82999992  13.27000046  56.86999893
C     9.11000061  13.76999950  57.23999786
C    13.15999985  14.75000000  58.08000183
C    13.86999989  14.34999943  56.91999817
C    15.25000000  14.28999996  56.86000061
C     5.40999985  13.02999973  57.32999802
H     4.97529459  13.69274712  56.58173370
H    10.05000019  13.14000034  55.34999847
H    11.10999966  15.08999920  59.79000092
H     8.30000019  14.98999977  60.34999847
H     6.24000025  14.02999973  59.80999756
H     7.73000002  12.76000023  55.91999817
H    15.72000027  13.89000034  55.96000290
H     4.78999996  13.19000053  58.22000122
H     5.26999998  11.98999977  57.01000214
S    13.25000000  11.96000004  52.30999756
C    10.57000065  11.33999920  52.88999939
C    11.90999985  11.23000050  53.22000122
C    12.38000011  10.67000008  54.43999863
C    11.46000004  10.10000038  55.30000305
C    10.06999969  10.21999931  55.06000137
C     9.11000061   9.67000008  55.94999695
C     7.76999998   9.88000011  55.70999908
C     7.37999964  10.48999977  54.48999786
C     8.26000023  11.00000000  53.55999756
C     9.64999962  10.88999939  53.86000061
C    13.81000042  10.82999992  54.66999817
C    14.40999985  11.46000004  53.54999924
C    15.77999973  11.69999981  53.47000122
C     5.91000032  10.65000057  54.20999908
H     5.53181171  10.23613358  53.27523422
H    10.21999931  11.85999966  52.00000000
H    11.65999985   9.70000076  56.29000092
H     9.42000008   9.27999973  56.91999817
H     7.07999992   9.59000015  56.50000000
H     8.01999950  11.49000072  52.62000275
H    16.26000023  12.28999996  52.69000244
H     5.25000000  10.19999981  54.97000122
H     5.64000034  11.72000027  54.26000214
S    17.11000061  10.39000034  56.95999908
C    19.79999924  10.85000038  56.22000122
C    18.45999908  11.00000000  55.97999954
C    17.97000122  11.61000061  54.78000259
C    18.88000107  12.05000019  53.82999802
C    20.26000023  12.05000019  54.12000275
C    21.14000130  12.48000050  53.08000183
C    22.49000168  12.36999989  53.30999756
C    23.00000000  11.80999947  54.52000046
C    22.14999962  11.44000053  55.52999878
C    20.73999786  11.46000004  55.34000015
C    16.54999924  11.33999920  54.58000183
C    15.90999985  10.75000000  55.70000076
C    14.57999992  10.38000011  55.75000000
C    24.47999954  11.57999992  54.65999985
H    24.87062263  11.92090607  55.61880112
H    20.03999901  10.26999950  57.11000061
H    18.54999924  12.23999977  52.81000137
H    20.69000053  12.86999893  52.18000031
H    23.13999939  12.71000004  52.51999664
H    22.39999962  10.76000023  56.35000229
H    14.11999893   9.67000008  56.44000244
H    24.94999886  11.92999935  53.73000336
H    24.56999969  10.48999977  54.59000015
