96

S    16.36000061  15.52000046  60.44000244
C    19.10000038  15.60999966  59.65999985
C    17.78000069  15.31000042  59.38999939
C    17.35000038  14.93000031  58.08000183
C    18.30000114  14.84000015  57.06999969
C    19.65999985  15.13000011  57.35000229
C    20.69999886  14.92000008  56.39999771
C    22.00000000  15.29999924  56.65000153
C    22.39999962  15.73999977  57.94000244
C    21.45999908  15.81999969  58.94000244
C    20.09000015  15.57000065  58.64999771
C    15.93000031  14.68000031  57.97000122
C    15.24000072  15.03999901  59.15999985
C    13.86000061  15.22999954  59.15999985
C    23.81999969  16.18000031  58.20999908
H    24.30523300  15.53777981  58.94498444
H    19.37999916  16.01000023  60.63000107
H    17.97000122  14.53999996  56.07999802
H    20.48999977  14.55999947  55.40000153
H    22.72999954  15.26999950  55.84999847
H    21.76000214  16.15999985  59.93000031
H    13.30000019  15.44000053  60.06999969
H    24.30000114  16.20000076  57.22000122
H    23.88999939  17.23999977  58.50999832
S    12.72999954  14.34000015  55.44000244
C    10.01000023  14.27999973  56.17000198
C    11.31999969  14.55000019  56.49000168
C    11.68000031  14.94999981  57.81999969
C    10.69000053  15.18000031  58.75999832
C     9.32999992  14.91000080  58.48999786
C     8.38999939  15.00000000  59.54999924
C     7.11000013  14.61999989  59.22000122
C     6.71000004  14.22000027  57.91999817
C     7.62000036  14.30999947  56.88000107
C     9.00000000  14.48999977  57.15000153
C    13.12999916  15.00000000  57.98999786
C    13.81999969  14.65999985  56.81000137
C    15.19000053  14.40999985  56.81000137
C     5.28999996  13.78999901  57.63000107
H     4.82748079  14.51579857  56.96112823
H     9.68999958  13.82999992  55.22999573
H    10.98999977  15.21999931  59.79999924
H     8.75000000  15.36999893  60.51000214
H     6.28999996  14.68000031  59.93000031
H     7.39000034  14.02999973  55.86000061
H    15.76000023  14.15999985  55.91999817
H     4.69999981  13.60999966  58.54000092
H     5.31000042  12.81999969  57.11999893
S    13.52000046  12.35999966  52.58999634
C    10.84000015  11.87999916  53.22999954
C    12.17000008  11.72999954  53.54999924
C    12.65999985  11.06999969  54.72000122
C    11.71000004  10.52000046  55.56000137
C    10.32999992  10.59000015  55.27999878
C     9.31999969  10.11999989  56.16000366
C     7.97999954  10.38000011  55.94999695
C     7.53000021  11.16000080  54.85000229
C     8.48999977  11.56000042  53.95999908
C     9.89000034  11.33999920  54.13000107
C    14.09000015  11.28000069  54.89999771
C    14.72000027  11.98999977  53.85000229
C    16.06999969  12.32999992  53.85000229
C     6.05999994  11.43000031  54.61000061
H     5.66077328  10.74561119  53.86145020
H    10.62000084  12.55000019  52.39999771
H    12.05999947  10.01000023  56.45000076
H     9.72000027   9.71000004  57.08000183
H     7.26999998  10.03000069  56.69000244
H     8.21000004  12.13000107  53.06999969
H    16.54000092  12.76000023  52.95999908
H     5.47999954  11.31999969  55.52999878
H     6.01999998  12.48999977  54.33000183
S    17.32999992  10.53999996  57.22000122
C    20.03000069  11.02000046  56.63000107
C    18.70000076  11.21000099  56.31000137
C    18.27000046  11.84000015  55.10000229
C    19.26000023  12.25000000  54.22000122
C    20.63999939  12.03999996  54.43999863
C    21.61999893  12.48999977  53.50999832
C    22.95000076  12.38000011  53.82999802
C    23.35000038  11.77000046  55.05000305
C    22.39999962  11.28000069  55.90999985
C    21.00000000  11.38000011  55.65999985
C    16.82999992  11.85999966  54.92000198
C    16.21000099  11.23000050  56.03000259
C    14.85000038  10.93999958  56.03000259
C    24.82999992  11.72999954  55.38000107
H    25.14239120  12.46128082  56.12548065
H    20.32999992  10.54999924  57.56000137
H    19.02000046  12.86000061  53.34999847
H    21.28000069  13.12000084  52.69000244
H    23.61000061  12.77999973  53.06000137
H    22.73999977  11.00999928  56.90999985
H    14.53999996  10.15999985  56.72000122
H    25.46999931  11.82999992  54.48999786
H    24.89999962  10.67999935  55.68000031
