96

S    16.53000069  15.65999985  60.44000244
C    19.20999908  15.81999969  59.78000259
C    17.94999886  15.43000031  59.40000153
C    17.68000031  15.01999950  58.06000137
C    18.72999954  14.93999958  57.15999985
C    20.06000137  15.25000000  57.54000092
C    21.14999962  15.10000038  56.65000153
C    22.42000198  15.50000000  57.01000214
C    22.69000053  15.98999977  58.30999756
C    21.65999985  16.00000000  59.22000122
C    20.30999947  15.67999935  58.88999939
C    16.22999954  14.93999958  57.88999939
C    15.48999977  15.29000092  59.05000305
C    14.11000061  15.51000023  59.06000137
C    24.09000015  16.38000107  58.73000336
H    24.50737000  15.70796585  59.47985077
H    19.18000031  16.34000015  60.72999954
H    18.54999924  14.47000027  56.19999695
H    21.07000160  14.68999958  55.63999939
H    23.19999886  15.36000061  56.26999664
H    21.70999908  16.32999992  60.25000000
H    13.55999947  15.85999966  59.92000198
H    24.79999924  16.36999893  57.88999939
H    23.90999985  17.40999985  59.03999710
S    13.02999973  14.09999943  55.51000214
C    10.34000015  13.81999969  56.30000305
C    11.61999893  14.27000046  56.56000137
C    11.97999954  14.75999928  57.85999680
C    10.93999958  14.98000050  58.74000168
C     9.61999989  14.48999977  58.55999756
C     8.48999977  14.73999977  59.38999939
C     7.23000002  14.37000084  59.00000000
C     6.91999960  13.81000042  57.72999573
C     8.00000000  13.53000069  56.91999817
C     9.32999992  13.88000011  57.29000092
C    13.40999985  14.98999977  57.95999908
C    14.14000034  14.57999992  56.81000137
C    15.52000046  14.46000004  56.79000092
C     5.49000025  13.53000069  57.31999969
H     5.23238277  14.15973186  56.46842957
H    10.06999969  13.42000008  55.33000183
H    11.16000080  15.57999992  59.61999893
H     8.61999989  15.39999962  60.25000000
H     6.44000006  14.60999966  59.71000290
H     7.92999983  13.21000004  55.89000320
H    16.05999947  14.07999992  55.91999817
H     4.81999969  13.56999969  58.18999863
H     5.65999985  12.46000099  57.11000061
S    17.43999863  16.18999863  54.45999908
C    20.12000084  16.46000099  53.74000168
C    18.85000038  16.06999969  53.39000320
C    18.50000000  15.62999916  52.06999969
C    19.52000046  15.59999943  51.13999939
C    20.86000061  15.90999985  51.46999741
C    21.93000031  15.76000023  50.54000092
C    23.23999786  16.10999870  50.77000046
C    23.50000000  16.72000122  52.02999878
C    22.52000046  16.77999878  53.00000000
C    21.17000198  16.39000130  52.78999710
C    17.06999969  15.36999893  52.02999878
C    16.31999969  15.62000084  53.20000076
C    14.93999958  15.72999954  53.22999954
C    24.90999985  17.11000061  52.38999939
H    25.37832832  16.44298553  53.11378098
H    20.31999969  16.95999908  54.68999863
H    19.23999977  15.42000008  50.10000229
H    21.70000076  15.21000004  49.64000320
H    24.04999924  15.81999969  50.12000275
H    22.86999893  17.18000031  53.95000076
H    14.37999916  15.97000027  54.13000107
H    25.52999878  16.95000076  51.49000168
H    24.93999863  18.11000061  52.83000183
S    13.97999954  15.06000042  49.36000061
C    11.33999920  14.57999992  50.08999634
C    12.61000061  14.94999981  50.47999954
C    12.82999992  15.34999943  51.84000015
C    11.75000000  15.52000046  52.69000244
C    10.44000053  15.15999985  52.31999969
C     9.32999992  15.21000004  53.22000122
C     8.05999947  14.89999962  52.78999710
C     7.85000038  14.47000027  51.45999908
C     8.90999985  14.37000084  50.58000183
C    10.22999954  14.72000027  50.96000290
C    14.27000046  15.47999954  52.02000046
C    14.98000050  15.31999969  50.80999756
C    16.35000038  15.08999920  50.86000061
C     6.52999973  13.93000031  50.93999863
H     5.98149586  14.74207115  50.46273041
H    11.11999989  14.19999981  49.09999847
H    11.77000046  15.81999969  53.73000336
H     9.43000031  15.50000000  54.26000214
H     7.17000008  14.98999977  53.40000153
H     8.85000038  14.04000092  49.54000092
H    16.86000061  14.77000046  49.95999908
H     5.95000029  13.50000000  51.77000046
H     6.72999954  13.21000004  50.13999939
