96

S    16.87000084  16.21999931  60.26000214
C    19.55999947  16.36000061  59.52999878
C    18.32999992  15.77000046  59.36000061
C    17.97999954  15.00000000  58.20999908
C    18.96000099  14.82999992  57.23999786
C    20.28000069  15.31999969  57.37999725
C    21.35999870  14.93999958  56.53999710
C    22.65999985  15.18000031  56.90000153
C    22.93000031  16.03000069  58.01000214
C    21.91999817  16.44000053  58.85000229
C    20.58000183  16.03999901  58.59000397
C    16.54999924  14.92000008  57.98999786
C    15.80000019  15.53999996  59.02000046
C    14.40999985  15.65000057  59.02000046
C    24.34999847  16.44000053  58.31999969
H    24.72790337  15.92661953  59.20415497
H    19.81999969  16.97999954  60.38000107
H    18.86000061  14.22000027  56.35000229
H    21.14999962  14.51000023  55.56000137
H    23.47999954  14.73000050  56.32999802
H    22.20999908  16.86000061  59.80999756
H    13.89000034  16.06999969  59.87999725
H    24.90999985  16.02000046  57.48000336
H    24.41999817  17.53999901  58.30999756
S    13.36999989  14.27999973  55.47999954
C    10.64000034  14.68999958  55.93000031
C    11.94000053  14.85999966  56.35000229
C    12.25999928  15.36000061  57.63999939
C    11.21000099  15.59000015  58.50999832
C     9.85999966  15.36999893  58.15999985
C     8.84000015  15.36000061  59.15000153
C     7.55999994  14.98999977  58.81000137
C     7.18999958  14.65999985  57.48000336
C     8.21000004  14.53999996  56.56000137
C     9.55999947  14.88999939  56.84000015
C    13.71000099  15.36999893  57.84999847
C    14.45000076  14.78999996  56.79000092
C    15.80999947  14.51000023  56.86999893
C     5.84999990  14.01999950  57.23999786
H     5.33013391  14.53986645  56.43527603
H    10.34999943  14.15999985  55.01999664
H    11.47999954  15.80999947  59.54999924
H     9.01000023  15.55999947  60.20999908
H     6.91999960  14.86999989  59.66999817
H     8.03999996  14.22000027  55.52999878
H    16.31999969  14.22999954  55.94999695
H     5.38999987  14.01999950  58.22999954
H     6.01999998  12.96000004  56.98999786
S    13.55000019  12.51000023  52.25999832
C    10.85999966  12.23000050  52.84999847
C    12.15999985  11.87999916  53.16999817
C    12.58999920  11.28999901  54.38999939
C    11.61000061  10.77000046  55.21999741
C    10.25000000  11.00000000  54.92000198
C     9.19000053  10.59999943  55.77999878
C     7.88000011  10.85999966  55.44000244
C     7.50000000  11.67000008  54.34000015
C     8.51000023  12.06999969  53.48999786
C     9.88000011  11.78999996  53.77999878
C    14.04000092  11.28999901  54.58000183
C    14.68999958  11.92000008  53.48999786
C    16.04999924  12.17000008  53.48999786
C     6.05999994  12.00000000  54.02999878
H     5.67545795  11.37333870  53.22531128
H    10.59000015  12.71000004  51.91999817
H    11.92000008  10.14999962  56.05999756
H     9.44000053  10.14000034  56.72999954
H     7.09000015  10.62999916  56.13999939
H     8.30000019  12.46999931  52.50000000
H    16.59000015  12.75000000  52.75000000
H     5.51000023  11.92999935  54.97000122
H     6.06999969  13.07000065  53.77999878
S    17.21999931  10.65999985  57.02000046
C    19.88999939  11.13000011  56.39999771
C    18.56999969  11.30000019  56.05999756
C    18.17000008  11.89000034  54.81999969
C    19.11000061  12.31999969  53.89999771
C    20.48000145  12.18999958  54.23999786
C    21.50000000  12.69999981  53.39000320
C    22.82999992  12.44999981  53.64999771
C    23.19000053  11.79999924  54.86000061
C    22.26000023  11.44000053  55.80999756
C    20.88000107  11.59000015  55.48999786
C    16.73999977  11.73999977  54.62999725
C    16.09000015  11.11999989  55.72999954
C    14.75000000  10.78999996  55.68000031
C    24.65999985  11.52999973  55.10000229
H    25.01648331  12.00768852  56.01259995
H    20.22000122  10.54999924  57.25999832
H    18.82999992  12.76000023  52.95000076
H    21.15999985  13.15000057  52.45999908
H    23.59999847  12.89999962  53.04000092
H    22.57999802  11.03999996  56.76000214
H    14.32000065  10.36000061  56.58000183
H    25.17999840  11.96000004  54.22999954
H    24.89999962  10.46000004  55.13999939
