96

S    16.63999939  15.55999947  60.34999847
C    19.32999992  15.77000046  59.68999863
C    18.09999847  15.22999954  59.40000153
C    17.76000023  14.63999939  58.15000153
C    18.79999924  14.46000004  57.25000000
C    20.10000038  14.94999981  57.50000000
C    21.15999985  14.89999962  56.55000305
C    22.44999886  15.15999985  56.95999908
C    22.80999947  15.53999996  58.27000046
C    21.76000214  15.64000034  59.15999985
C    20.39999962  15.54999924  58.76999664
C    16.31999969  14.59000015  57.90999985
C    15.57999992  15.00000000  59.05000305
C    14.21000004  15.26000023  59.06999969
C    24.27000046  15.72000027  58.61999893
H    24.56250954  15.22772789  59.54747009
H    19.59000015  16.22999954  60.63999939
H    18.53000069  14.02999973  56.29000092
H    21.05999947  14.56999969  55.52000046
H    23.28000069  15.17000008  56.25999832
H    21.96000099  15.80000019  60.21999741
H    13.66000080  15.65999985  59.92000198
H    24.92000198  15.46000004  57.77000046
H    24.43000031  16.79000092  58.82999802
S    13.14000034  13.71000099  55.56000137
C    10.43000031  13.96000004  56.11000061
C    11.72000027  14.11999893  56.53999710
C    12.06999969  14.75999928  57.77999878
C    11.03999996  15.17000008  58.60000229
C     9.70000076  14.80000019  58.31999969
C     8.67000008  14.88999939  59.29999924
C     7.40999985  14.46000004  58.96999741
C     7.11999989  13.83999920  57.71999741
C     8.05999947  13.83999920  56.70999908
C     9.39000034  14.21000004  57.04000092
C    13.52000046  14.80999947  57.94000244
C    14.22999954  14.34000015  56.81000137
C    15.62000084  14.22999954  56.76000214
C     5.71000004  13.36999989  57.45999908
H     5.15999031  13.89858150  56.68141556
H    10.19000053  13.36999989  55.22999573
H    11.26999950  15.51000023  59.59999847
H     8.82000065  15.39000034  60.25000000
H     6.58999968  14.63000107  59.66999817
H     7.76000023  13.43999958  55.73999786
H    16.07999992  13.71000099  55.93000031
H     5.09999990  13.43999958  58.36999893
H     5.78000021  12.28999996  57.27000427
S    13.73000050  11.84999943  52.49000168
C    11.09000015  11.25000000  53.09999847
C    12.42000008  11.06999969  53.40000153
C    12.84999943  10.52000046  54.65000153
C    11.94000053  10.11000061  55.61000061
C    10.57000065  10.26000023  55.30000305
C     9.55000019   9.85000038  56.19999695
C     8.22000027   9.94999981  55.90000153
C     7.77999973  10.70000076  54.78000259
C     8.73999977  11.11999989  53.88999939
C    10.13000011  10.86999989  54.06999969
C    14.26000023  10.81999969  54.84000397
C    14.88999939  11.56999969  53.80000305
C    16.21999931  11.97000027  53.77999878
C     6.32999992  11.05999947  54.52999878
H     5.82795429  10.49431419  53.74510956
H    10.72999954  11.77999973  52.22999954
H    12.18999958   9.59000015  56.53999710
H     9.80000019   9.35999966  57.14000320
H     7.49000025   9.44999981  56.52999878
H     8.34999943  11.47999954  52.94000244
H    16.69000053  12.20999908  52.83000183
H     5.75000000  10.90000057  55.45000076
H     6.30999994  12.10999966  54.20999908
S    17.60000038  10.53999996  57.15000153
C    20.28000069  11.00999928  56.47999573
C    18.95000076  11.23000050  56.23000336
C    18.51000023  11.79999924  54.99000168
C    19.45999908  12.23000050  54.08000183
C    20.84000015  12.23999977  54.38999939
C    21.84999847  12.64999962  53.47999954
C    23.15999985  12.71999931  53.88999939
C    23.55999947  12.05000019  55.07999802
C    22.63000107  11.44000053  55.87999725
C    21.24000168  11.61000061  55.61999893
C    17.05999947  11.68000031  54.85000229
C    16.43000031  10.92000008  55.86999893
C    15.11000061  10.48999977  55.90999985
C    25.03999901  11.84000015  55.31000137
H    25.39653587  12.30349827  56.22986603
H    20.58000183  10.39999962  57.31999969
H    19.18000031  12.39999962  53.04000092
H    21.54999924  12.89000034  52.45999908
H    23.85000038  13.17000008  53.18000031
H    22.95999908  10.73999977  56.63999939
H    14.63999939   9.94000053  56.70999908
H    25.59999847  12.30999947  54.48999786
H    25.22999954  10.76000023  55.30000305
