96

S    16.69999886  15.71000004  60.52000046
C    19.38999939  16.01000023  59.91000366
C    18.12999916  15.67000008  59.47000122
C    17.79000092  15.26000023  58.13999939
C    18.78000069  15.11000061  57.19999695
C    20.12000084  15.34999943  57.60000229
C    21.09999847  15.44000053  56.56999969
C    22.39999962  15.72000027  56.90999985
C    22.70000076  16.13000107  58.23999786
C    21.73000145  16.18999863  59.22000122
C    20.39999962  15.77000046  58.95000076
C    16.35000038  15.06000042  57.97000122
C    15.62999916  15.36999893  59.15000153
C    14.23999977  15.43000031  59.25000000
C    24.11999893  16.53000069  58.55999756
H    24.64869308  15.80126095  59.17442322
H    19.60000038  16.39000130  60.90999985
H    18.51000023  14.78999996  56.19999695
H    20.76999855  15.21000004  55.56000137
H    23.22000122  15.65000057  56.19999695
H    21.80999947  16.60000038  60.21999741
H    13.66000080  15.71000004  60.12000275
H    24.86999893  16.67000008  57.77999878
H    24.00000000  17.38000107  59.25000000
S    13.20000076  14.14999962  55.56999969
C    10.52999973  13.99000072  56.25999832
C    11.78999996  14.45000076  56.59999847
C    12.13999939  14.93000031  57.90000153
C    11.14999962  14.94999981  58.87000275
C     9.81000042  14.75000000  58.47000122
C     8.73000050  14.85999966  59.40000153
C     7.44000006  14.60000038  59.00000000
C     7.13999987  13.99000072  57.75000000
C     8.15999985  13.80000019  56.84000015
C     9.48999977  14.18000031  57.18999863
C    13.57999992  15.01999950  58.09000015
C    14.26000023  14.65000057  56.90000153
C    15.65000057  14.61999989  56.84000015
C     5.73999977  13.60999966  57.35000229
H     5.25401735  14.28179932  56.64246750
H    10.32999992  13.63000011  55.25000000
H    11.39999962  15.19999981  59.88999939
H     9.02000046  15.00000000  60.43000031
H     6.67999983  14.73999977  59.77000427
H     8.02999973  13.40000057  55.84000015
H    16.21000099  14.44000053  55.93000031
H     5.27999973  13.73000050  58.34999847
H     5.80999947  12.56999969  57.01000214
S    17.23999977  16.38000107  54.18000031
C    19.98999977  16.56999969  53.44999695
C    18.68000031  16.26000023  53.15999985
C    18.25000000  15.82999992  51.86000061
C    19.20999908  15.73999977  50.86999893
C    20.56999969  16.05999947  51.06999969
C    21.59000015  15.88000107  50.08999634
C    22.88999939  16.20000076  50.40999985
C    23.26000023  16.69000053  51.69000244
C    22.27999878  16.84999847  52.64999771
C    20.93000031  16.50000000  52.38999939
C    16.80999947  15.67000008  51.70000076
C    16.11999893  15.85999966  52.91999817
C    14.73000050  15.98000050  52.95000076
C    24.70000076  16.86000061  52.09999847
H    25.04908562  16.06209183  52.75542450
H    20.29999924  16.90999985  54.43999863
H    18.88000107  15.44999981  49.86999893
H    21.30000114  15.39000034  49.15999985
H    23.67000198  16.02000046  49.68000031
H    22.47999954  17.25000000  53.64999771
H    14.19999981  16.28999901  53.85000229
H    25.29000092  16.86000061  51.17000198
H    24.86999893  17.84000015  52.56999969
S    13.61999989  15.05000019  49.25000000
C    10.93000031  14.84000015  50.00999832
C    12.22000027  15.14999962  50.34000015
C    12.63000011  15.64000034  51.63000107
C    11.67000008  15.86999989  52.60000229
C    10.31000042  15.71000004  52.22999954
C     9.27999973  15.75000000  53.20999908
C     7.99000025  15.32999992  52.97000122
C     7.63000011  14.85000038  51.69000244
C     8.56999969  14.88999939  50.68000031
C     9.92999935  15.22999954  50.93000031
C    14.07999992  15.76000023  51.73999786
C    14.77000046  15.43000031  50.54000092
C    16.15999985  15.38000011  50.48999786
C     6.28000021  14.23999977  51.38999939
H     5.76901960  14.79356194  50.60223770
H    10.71000004  14.32999992  49.06999969
H    12.02999973  15.98999977  53.61999893
H     9.53999996  15.88000107  54.25000000
H     7.26000023  15.27999973  53.77999878
H     8.36999989  14.39000034  49.73999786
H    16.64999962  14.84000015  49.68000031
H     5.55999994  14.34000015  52.21000290
H     6.30000019  13.15000057  51.25999832
