96

S    16.28000069  15.62000084  60.13999939
C    19.01000023  15.57999992  59.52000046
C    17.71000099  15.34000015  59.13999939
C    17.30999947  14.82999992  57.85999680
C    18.34000015  14.73999977  56.93999863
C    19.68000031  15.03000069  57.27000427
C    20.75000000  14.85999966  56.33999634
C    22.04000092  15.19000053  56.68000031
C    22.39000130  15.55999947  58.00000000
C    21.40999985  15.80000019  58.93000031
C    20.06999969  15.47000027  58.57999802
C    15.86999989  14.68000031  57.64999771
C    15.19999981  15.10000038  58.82999802
C    13.81999969  15.29000092  58.86000061
C    23.81999969  15.95000076  58.31999969
H    24.39504814  15.19746876  58.85955048
H    19.11999893  15.98000050  60.52000046
H    18.02000046  14.44000053  55.94999695
H    20.51000214  14.55000019  55.31999969
H    22.76000023  15.17000008  55.86999893
H    21.61999893  16.39000130  59.81999969
H    13.26000023  15.53999996  59.75000000
H    24.30000114  16.15999985  57.36000061
H    23.90000153  16.90999985  58.83999634
S    12.67000008  14.18000031  55.20000076
C     9.96999931  14.06999969  55.83000183
C    11.23999977  14.42999935  56.22000122
C    11.63000011  14.75000000  57.56999969
C    10.62999916  14.78999996  58.52000427
C     9.30999947  14.40000057  58.20999908
C     8.23999977  14.65000057  59.10999680
C     6.94000006  14.47000027  58.68999863
C     6.63999987  14.06999969  57.36000061
C     7.64999962  13.73999977  56.49000168
C     9.00000000  14.00000000  56.86000061
C    13.05999947  14.96000099  57.72999573
C    13.75000000  14.63999939  56.52999878
C    15.13000011  14.55000019  56.46999741
C     5.21000004  13.86999989  56.88999939
H     4.94546604  14.53491020  56.06779861
H     9.76000023  13.81000042  54.79999924
H    10.88999939  14.98000050  59.55999756
H     8.50000000  15.05000019  60.08999634
H     6.11999989  14.61999989  59.38000107
H     7.50000000  13.45000076  55.45999908
H    15.59000015  14.55000019  55.48999786
H     4.59000015  14.14000034  57.75000000
H     5.01999950  12.79999924  56.72999954
S    17.23999977  16.22999954  54.18000031
C    19.88000107  16.70999908  53.26000214
C    18.56999969  16.34000015  53.02000046
C    18.22000122  15.82999992  51.72999954
C    19.19000053  15.53999996  50.79000092
C    20.52000046  15.97000027  51.00999832
C    21.54999924  15.62000084  50.08999634
C    22.86000061  15.85000038  50.43000031
C    23.21000099  16.36000061  51.70999908
C    22.27000046  16.57999992  52.69000244
C    20.89999962  16.45000076  52.30999756
C    16.79000092  15.53999996  51.68000031
C    16.10000038  15.77999973  52.90000153
C    14.70999908  15.76000023  52.95999908
C    24.65999985  16.54999924  52.08000183
H    25.03609848  15.89714813  52.86767960
H    20.27000046  17.05999947  54.20999908
H    18.95000076  14.85000038  49.98000336
H    21.18000031  15.01000023  49.27000046
H    23.68000031  15.43000031  49.86000061
H    22.52000046  16.72999954  53.73000336
H    14.13000011  16.27000046  53.73000336
H    25.26000023  16.39000130  51.17000198
H    24.86999893  17.61000061  52.25999832
S    13.63000011  14.86999989  49.22999954
C    10.95999908  14.55999947  49.95999908
C    12.20999908  15.05000019  50.27000046
C    12.50000000  15.44000053  51.62000275
C    11.47999954  15.78999996  52.49000168
C    10.21000004  15.26999950  52.14000320
C     9.10000038  15.44999981  53.02000046
C     7.82999992  15.03000069  52.69000244
C     7.53999996  14.47999954  51.40999603
C     8.56000042  14.29999924  50.50000000
C     9.88000011  14.68000031  50.86999893
C    13.94000053  15.46000004  51.83000183
C    14.65000057  15.11999989  50.65999985
C    16.03999901  15.10000038  50.59000015
C     6.15000010  13.93000031  51.17000198
H     5.53046083  14.54241753  50.51485443
H    10.86999989  14.04999924  49.01000214
H    11.69000053  16.21000099  53.47000122
H     9.30000019  15.81999969  54.02000046
H     7.03999996  15.00000000  53.43000031
H     8.30000019  13.89000034  49.52999878
H    16.47999954  14.98000050  49.59999847
H     5.79999971  13.90999985  52.21000290
H     6.11999989  12.86999893  50.86999893
