96

S    16.81999969  15.72000027  60.14999771
C    19.47999954  15.92000008  59.48999786
C    18.22000122  15.55999947  59.08000183
C    17.82999992  15.21000004  57.74000168
C    18.84000015  15.07999992  56.79999924
C    20.17999840  15.36999893  57.15000153
C    21.25000000  15.10000038  56.25999832
C    22.53000069  15.31000042  56.70999908
C    22.84000015  15.95999908  57.93000031
C    21.80999947  16.17000008  58.81999969
C    20.46999931  15.82999992  58.47999954
C    16.38000107  15.19000053  57.55000305
C    15.75000000  15.62999916  58.74000168
C    14.37999916  15.75000000  58.92000198
C    24.21999931  16.39999962  58.34999847
H    24.71138954  15.68071938  59.00518799
H    19.65999985  16.36000061  60.47000122
H    18.70000076  14.70000076  55.79000092
H    21.02999878  14.73000050  55.26000214
H    23.36000061  15.15999985  56.02000427
H    22.06999969  16.46000099  59.84000397
H    14.01000023  16.09000015  59.87999725
H    24.82000160  16.72999954  57.49000168
H    24.04000092  17.28999901  58.95000076
S    13.04999924  14.63999939  55.31000137
C    10.43000031  14.53999996  56.17000198
C    11.72999954  14.88000011  56.45999908
C    12.10999966  15.32999992  57.77000046
C    11.16000080  15.47999954  58.75999832
C     9.81999969  15.10000038  58.53000259
C     8.73999977  15.03999901  59.45999908
C     7.44999981  14.75999928  59.06999969
C     7.09999990  14.35999966  57.75000000
C     8.15999985  14.26000023  56.86999893
C     9.47000027  14.70999908  57.18999863
C    13.55999947  15.36000061  57.84999847
C    14.19000053  14.96000099  56.63999939
C    15.55999947  14.84000015  56.46999741
C     5.73999977  13.85000038  57.36000061
H     5.19921970  14.54020596  56.71248627
H    10.17000008  14.01000023  55.25000000
H    11.59000015  15.67999935  59.73999786
H     8.94999981  15.42000008  60.45000076
H     6.71000004  14.68999958  59.86000061
H     8.15999985  13.69999981  55.93999863
H    15.98000050  14.63000107  55.48999786
H     5.07999992  13.73999977  58.22999954
H     5.73999977  12.84999943  56.90999985
S    13.48999977  12.43000031  52.34000397
C    10.85999966  11.82999992  53.00000000
C    12.20000076  11.69000053  53.29999924
C    12.67000008  11.10000038  54.52000046
C    11.77000046  10.65000057  55.47000122
C    10.39000034  10.77999973  55.17000198
C     9.39000034  10.31000042  56.05999756
C     8.03999996  10.31000042  55.77999878
C     7.57000017  10.93999958  54.59999847
C     8.51000023  11.56999969  53.81999969
C     9.90999985  11.39000034  53.95999908
C    14.13000011  11.18999958  54.54999924
C    14.73999977  11.87000084  53.47000122
C    16.07999992  12.23999977  53.43999863
C     6.12999964  11.39000034  54.43999863
H     5.68905258  10.89926910  53.57233047
H    10.50000000  12.50000000  52.22000122
H    12.07999992  10.14000034  56.37000275
H     9.68000031   9.68999958  56.90999985
H     7.39000034   9.85000038  56.52000046
H     8.23000050  12.18000031  52.95999908
H    16.59000015  12.75000000  52.63999939
H     5.65999985  11.09000015  55.38999939
H     6.15000010  12.48999977  54.41999817
S    17.38000107  10.72000027  56.88999939
C    20.06000137  11.35000038  56.30000305
C    18.72999954  11.40999985  55.97999954
C    18.26000023  12.06999969  54.79000092
C    19.23999977  12.64000034  54.00000000
C    20.62000084  12.53000069  54.29000092
C    21.64999962  12.86000061  53.36000061
C    22.98000145  12.81999969  53.69999695
C    23.43000031  12.28000069  54.93999863
C    22.46999931  11.96000004  55.86999893
C    21.09000015  11.92999935  55.52000046
C    16.81999969  11.96000004  54.59999847
C    16.25000000  11.11999989  55.59000015
C    14.92000008  10.72000027  55.61000061
C    24.86999893  11.87000084  55.14999771
H    25.27507401  12.05477238  56.14492035
H    20.36000061  10.73999977  57.15000153
H    18.92000008  13.12999916  53.09000015
H    21.35000038  13.12999916  52.35000229
H    23.68000031  12.97000027  52.88999939
H    22.70999908  11.38000011  56.76000214
H    14.42000008  10.11000061  56.35000229
H    25.52999878  12.50000000  54.54000092
H    25.03000069  10.85999966  54.75999832
