96

S    16.92000008  15.92000008  60.26000214
C    19.64999962  15.93999958  59.61000061
C    18.36000061  15.57999992  59.27999878
C    18.06999969  15.05000019  57.98999786
C    19.06999969  14.91000080  57.04000092
C    20.40999985  15.25000000  57.34000397
C    21.40999985  15.36999893  56.32999802
C    22.69000053  15.71000004  56.72000122
C    23.01000214  16.18999863  58.02000046
C    21.97999954  16.23999977  58.93000031
C    20.68000031  15.70000076  58.67000198
C    16.62999916  14.98000050  57.80000305
C    15.88999939  15.48999977  58.88999939
C    14.50000000  15.52999973  58.96999741
C    24.38999939  16.62999916  58.41999817
H    24.86661911  16.03956223  59.20250702
H    19.86999893  16.53000069  60.48999786
H    18.84000015  14.72000027  55.98999786
H    21.15999985  15.26999950  55.27999878
H    23.43000031  15.80000019  55.93000031
H    22.10000038  16.72999954  59.88999939
H    14.01000023  16.02000046  59.80999756
H    25.02000046  16.57999992  57.51999664
H    24.30000114  17.71000099  58.61999893
S    13.38000107  14.19000053  55.43000031
C    10.72000027  14.26000023  56.00999832
C    11.97999954  14.61999989  56.43000031
C    12.30999947  15.01999950  57.76000214
C    11.26000023  15.34000015  58.60000229
C     9.94000053  14.96000099  58.23999786
C     8.90999985  15.13000011  59.20999908
C     7.57999992  14.91000080  58.89999771
C     7.31999969  14.34999943  57.62000275
C     8.30999947  14.04000092  56.72000122
C     9.65999985  14.46000004  56.91999817
C    13.76000023  15.01000023  57.90999985
C    14.47999954  14.57999992  56.77000046
C    15.86999989  14.46000004  56.75000000
C     5.89999962  14.00000000  57.25000000
H     5.43092394  14.83154297  56.72406769
H    10.60999966  13.81999969  55.01999664
H    11.46000004  15.81999969  59.54999924
H     9.13999939  15.65000057  60.13000107
H     6.88000011  15.08999920  59.71000290
H     8.02999973  13.53999996  55.79000092
H    16.43000031  14.01000023  55.93000031
H     5.36999989  13.82999992  58.20000076
H     5.86999989  13.09999943  56.63000107
S    13.04999924  11.95000076  52.29999924
C    10.39999962  11.77999973  53.02999878
C    11.69999981  11.43000031  53.33000183
C    12.01000023  10.86999989  54.61000061
C    11.05000019  10.43000031  55.51000214
C     9.72000027  10.54999924  55.04000092
C     8.60999966  10.14999962  55.83000183
C     7.28999996  10.36000061  55.50000000
C     6.98000002  11.06999969  54.31000137
C     8.00000000  11.44000053  53.47000122
C     9.35999966  11.23000050  53.81999969
C    13.47000027  10.81999969  54.62999725
C    14.18000031  11.42000008  53.55999756
C    15.50000000  11.87000084  53.55999756
C     5.55999994  11.36999989  53.87000275
H     5.18874931  10.84168148  52.99185181
H    10.14999962  12.44999981  52.22000122
H    11.28999901  10.11999989  56.52000046
H     8.80000019   9.73999977  56.81999969
H     6.47000027  10.00000000  56.11000061
H     7.82000017  11.94000053  52.51999664
H    15.84000015  12.28000069  52.62000275
H     4.76999998  11.33999920  54.64000320
H     5.52999973  12.44999981  53.64999771
S    16.72000122  10.21999931  56.93000031
C    19.37999916  11.00999928  56.52999878
C    18.05999947  11.10000038  56.17000198
C    17.68000031  11.76000023  54.94999695
C    18.68999863  12.28000069  54.15999985
C    20.06000137  12.17000008  54.48999786
C    21.04000092  12.86999893  53.74000168
C    22.36999893  12.72999954  54.06999969
C    22.78000069  11.89000034  55.13000107
C    21.83000183  11.26999950  55.90999985
C    20.43999863  11.44999981  55.68000031
C    16.26000023  11.59999943  54.71000290
C    15.59999943  10.82999992  55.70000076
C    14.25000000  10.50000000  55.73999786
C    24.23999977  11.52999973  55.24000168
H    24.74298859  12.13925362  55.99094391
H    19.62000084  10.67999935  57.52999878
H    18.38999939  12.76999950  53.22999954
H    20.69000053  13.50999928  52.94000244
H    23.06999969  13.23999977  53.40999985
H    22.11000061  10.72999954  56.81000137
H    13.71999931  10.11000061  56.60999680
H    24.67000008  11.69000053  54.23999786
H    24.30000114  10.47000027  55.52000046
