96

S    16.59000015  15.80999947  60.22999573
C    19.22999954  16.13000107  59.43999863
C    18.00000000  15.57000065  59.18000031
C    17.69000053  15.18000031  57.84000015
C    18.73999977  15.10000038  56.93999863
C    20.06999969  15.44999981  57.29000092
C    21.09999847  15.24000072  56.32999802
C    22.36999893  15.62999916  56.68000031
C    22.72000122  16.14999962  57.95000076
C    21.70000076  16.38000107  58.83999634
C    20.34000015  16.04999924  58.56999969
C    16.25000000  15.08999920  57.70999908
C    15.51000023  15.42000008  58.88000107
C    14.14000034  15.67999935  58.89999771
C    24.07999992  16.73999977  58.22999954
H    24.49259567  16.26338196  59.11921310
H    19.40000153  16.76000023  60.31000137
H    18.52000046  14.81999969  55.90999985
H    20.85000038  14.92000008  55.31999969
H    23.09000015  15.64000034  55.86999893
H    22.03000069  16.76000023  59.80999756
H    13.61999989  15.95999908  59.80999756
H    24.77999878  16.61999893  57.38999939
H    24.00000000  17.82999992  58.34000015
S    13.05999947  14.78999996  55.11000061
C    10.39000034  14.60999966  55.73999786
C    11.64999962  14.93999958  56.18000031
C    12.02999973  15.40999985  57.47000122
C    11.00999928  15.55999947  58.39000320
C     9.65999985  15.34999943  58.02000046
C     8.56999969  15.44999981  58.93000031
C     7.30999994  14.98999977  58.61000061
C     7.02000046  14.44000053  57.32999802
C     8.06999969  14.32000065  56.44000244
C     9.36999989  14.81999969  56.70999908
C    13.47000027  15.40999985  57.70000076
C    14.13000011  14.98999977  56.51000214
C    15.48999977  14.73000050  56.59000015
C     5.60999966  14.02999973  56.98999786
H     4.90646172  14.86145401  56.94736099
H    10.27999973  13.96000004  54.87999725
H    11.28000069  15.81999969  59.40999985
H     8.88000011  15.60999966  59.95999908
H     6.65000010  14.78000069  59.43999863
H     7.94000053  13.81999969  55.47999954
H    15.90000057  14.34000015  55.65999985
H     5.32999992  13.28999996  57.75000000
H     5.65000010  13.67000008  55.96000290
S    16.97000122  16.39999962  54.10999680
C    19.64999962  16.53000069  53.61000061
C    18.43000031  16.07999992  53.16999817
C    18.19000053  15.47000027  51.88999939
C    19.25000000  15.34999943  51.02000427
C    20.52999878  15.75000000  51.47999573
C    21.67000008  15.65999985  50.63000107
C    22.93000031  16.14999962  50.86000061
C    23.05999947  16.82999992  52.09999847
C    22.03000069  17.00000000  52.98999786
C    20.75000000  16.43000031  52.71999741
C    16.75000000  15.44000053  51.65000153
C    15.95999908  15.86999989  52.74000168
C    14.57999992  16.03000069  52.70999908
C    24.40999985  17.38999939  52.50000000
H    24.94275665  16.75779533  53.21034241
H    19.78999901  17.02999878  54.56999969
H    19.07999992  14.86999989  50.06000137
H    21.31000137  15.08999920  49.77000427
H    23.78000069  16.05999947  50.19000244
H    22.14999962  17.48999977  53.95000076
H    14.01000023  16.55999947  53.47000122
H    24.94999886  17.59000015  51.56999969
H    24.41999817  18.39999962  52.91999817
S    13.71000099  14.86999989  49.00000000
C    10.95999908  14.60999966  49.54000092
C    12.22000027  14.93999958  49.98000336
C    12.48999977  15.40999985  51.30000305
C    11.40999985  15.57999992  52.14000320
C    10.11999989  15.14000034  51.73999786
C     8.98999977  15.25000000  52.58999634
C     7.71000004  14.88999939  52.25999832
C     7.49000025  14.30999947  50.98999786
C     8.52999973  14.21000004  50.07999802
C     9.84000015  14.65000057  50.40999985
C    13.90999985  15.59999943  51.56000137
C    14.68999958  15.18000031  50.45000076
C    16.07999992  15.17000008  50.45000076
C     6.11000013  13.80000019  50.65999985
H     5.53402281  14.46841717  50.02002335
H    10.80000019  14.04999924  48.62999725
H    11.44000053  15.93000031  53.16999817
H     9.22000027  15.72000027  53.54000092
H     6.98000002  15.06000042  53.04999924
H     8.40999985  13.78999901  49.09000015
H    16.72000122  14.84000015  49.64000320
H     5.55999994  13.53000069  51.56999969
H     6.24000025  12.84000015  50.14999771
