96

S    16.45000076  15.75000000  60.01999664
C    19.19999886  15.65999985  59.47999954
C    17.90999985  15.50000000  59.03999710
C    17.57999992  14.96000099  57.75000000
C    18.60000038  14.73000050  56.84999847
C    19.93999863  14.98999977  57.22000122
C    21.04999924  14.85000038  56.33999634
C    22.32999992  15.24000072  56.66999817
C    22.60000038  15.67000008  58.00000000
C    21.59000015  15.70000076  58.93000031
C    20.23999977  15.47000027  58.54000092
C    16.13999939  15.00000000  57.50999832
C    15.40999985  15.54999924  58.59000397
C    14.02999973  15.65000057  58.69999695
C    24.00000000  16.13999939  58.34999847
H    24.51276588  15.45631218  59.02656555
H    19.50000000  15.98000050  60.47000122
H    18.38000107  14.35999966  55.86000061
H    20.82999992  14.59000015  55.30000305
H    23.09999847  15.21999931  55.90999985
H    21.77999878  16.06999969  59.93999863
H    13.47000027  16.03000069  59.54000092
H    24.48999786  16.27000046  57.37999725
H    23.98999977  17.14999962  58.76999664
S    12.84999943  14.53999996  55.08999634
C    10.14999962  14.34999943  55.87999725
C    11.44000053  14.75000000  56.13999939
C    11.79999924  15.34999943  57.38999939
C    10.82999992  15.60999966  58.34000015
C     9.48999977  15.19000053  58.13000107
C     8.48999977  15.36000061  59.13000107
C     7.17999983  15.06999969  58.86000061
C     6.83000040  14.47999954  57.62000275
C     7.77999973  14.30999947  56.63999939
C     9.15000057  14.63000107  56.84999847
C    13.23999977  15.31000042  57.58999634
C    13.94999981  14.89999962  56.43000031
C    15.32999992  14.70000076  56.40999603
C     5.42999983  14.00000000  57.31999969
H     4.96813059  14.64661694  56.57390213
H     9.88000011  13.76999950  55.00000000
H    11.06999969  15.90000057  59.36000061
H     8.78999996  15.75000000  60.10000229
H     6.42000008  15.21000004  59.62999725
H     7.46999979  13.86999989  55.68999863
H    15.80000019  14.30999947  55.52000046
H     4.86999989  13.97999954  58.27000046
H     5.45000029  12.94000053  57.04999924
S    13.53999996  12.11999989  52.45999908
C    10.86999989  11.72999954  53.11999893
C    12.18999958  11.57999992  53.47000122
C    12.68000031  11.09000015  54.72000122
C    11.69000053  10.60999966  55.56000137
C    10.31000042  10.64000034  55.20999908
C     9.30999947  10.29999924  56.16000366
C     7.96000004  10.46000004  55.91999817
C     7.55999994  11.05999947  54.69999695
C     8.48999977  11.61000061  53.85000229
C     9.85999966  11.25000000  53.99000168
C    14.11999893  11.16000080  54.89999771
C    14.70000076  11.76000023  53.75000000
C    16.06999969  11.97000027  53.69999695
C     6.09000015  11.39000034  54.55999756
H     5.64165497  10.87048912  53.71312332
H    10.57999992  12.35000038  52.27000427
H    11.97000027  10.10000038  56.47999573
H     9.85999966   9.92999935  57.02000046
H     7.23000002  10.03000069  56.59999847
H     8.18000031  12.23999977  53.01000214
H    16.47999954  12.15999985  52.70999908
H     5.46999979  11.14999962  55.43000031
H     6.01000023  12.48000050  54.45000076
S    17.46000099  10.57999992  57.18999863
C    20.09000015  11.10000038  56.55000305
C    18.77000046  11.25000000  56.19999695
C    18.32999992  11.85999966  54.98000336
C    19.27999878  12.13000107  54.02000046
C    20.65999985  12.00000000  54.29999924
C    21.63999939  12.25000000  53.29999924
C    22.96999931  12.10000038  53.62999725
C    23.39999962  11.63000011  54.89999771
C    22.43999863  11.28000069  55.83000183
C    21.05999947  11.47999954  55.58000183
C    16.88999939  11.76000023  54.81999969
C    16.31000137  11.13000011  55.94999695
C    14.94999981  10.82999992  55.97999954
C    24.87999916  11.51999950  55.19000244
H    25.20688248  11.90373135  56.15643692
H    20.45999908  10.65000057  57.47000122
H    18.95000076  12.31999969  53.00000000
H    21.25999832  12.50000000  52.30999756
H    23.71000099  12.22000027  52.84000015
H    22.79000092  10.93000031  56.79000092
H    14.48999977  10.31999969  56.81999969
H    25.34000015  11.94000053  54.29000092
H    25.13999939  10.44999981  55.21999741
