96

S    16.29999924  15.31000042  60.58000183
C    18.97999954  15.62999916  59.82999802
C    17.70000076  15.25000000  59.48999786
C    17.31999969  14.81999969  58.18000031
C    18.36000061  14.55999947  57.29999924
C    19.70000076  14.68000031  57.70999908
C    20.81000137  14.40999985  56.84999847
C    22.11000061  14.78000069  57.09999847
C    22.39000130  15.48999977  58.29999924
C    21.38000107  15.73999977  59.20000076
C    20.03999901  15.34999943  58.94000244
C    15.88000107  14.67000008  58.02000046
C    15.19999981  14.89999962  59.25000000
C    13.81000042  15.00000000  59.25000000
C    23.84000015  15.86999989  58.54000092
H    24.32374191  15.42182636  59.40789032
H    19.13999939  16.18000031  60.76000214
H    18.11000061  14.25000000  56.27999878
H    20.51000214  13.93000031  55.93000031
H    22.88999939  14.47999954  56.40999603
H    21.56999969  16.31000137  60.10000229
H    13.43999958  15.24000072  60.24000168
H    24.46000099  15.71000004  57.64999771
H    23.72999954  16.95000076  58.69999695
S    12.84000015  13.59000015  55.59000015
C    10.14000034  13.86000061  56.18000031
C    11.44000053  14.11999893  56.53999710
C    11.72000027  14.50000000  57.88999939
C    10.67999935  14.81999969  58.75000000
C     9.32999992  14.56999969  58.37999725
C     8.23999977  14.77000046  59.27000046
C     6.98000002  14.35999966  58.89999771
C     6.76999998  13.75000000  57.63999939
C     7.76000023  13.57999992  56.69000244
C     9.06000042  14.01999950  57.08000183
C    13.15999985  14.53999996  58.09999847
C    13.86000061  14.06000042  56.95999908
C    15.24000072  14.14999962  56.88999939
C     5.38000011  13.23999977  57.32999802
H     4.90169716  13.82538605  56.54472733
H     9.89000034  13.38000107  55.22999573
H    10.90999985  15.18000031  59.75000000
H     8.30999947  15.31000042  60.20999908
H     6.12999964  14.44000053  59.58000183
H     7.50000000  13.09999943  55.76000214
H    15.80000019  13.69999981  56.06999969
H     4.76999998  13.32999992  58.22999954
H     5.42999983  12.17000008  57.11000061
S    16.82999992  15.48999977  54.38000107
C    19.52999878  15.90000057  53.73000336
C    18.30000114  15.36999893  53.40000153
C    17.92000008  15.01999950  52.06999969
C    18.93000031  15.06000042  51.11999893
C    20.25000000  15.44000053  51.44000244
C    21.18999863  15.70000076  50.40000153
C    22.49000168  16.03000069  50.72000122
C    22.82999992  16.29999924  52.06999969
C    21.87000084  16.39000130  53.04999924
C    20.56999969  15.86999989  52.77999878
C    16.48999977  14.98999977  51.79999924
C    15.76000023  15.26000023  52.97999954
C    14.37999916  15.46000004  53.01000214
C    24.25000000  16.72999954  52.36000061
H    24.64715958  16.15553665  53.19687271
H    19.72999954  16.32999992  54.71000290
H    18.56999969  15.19000053  50.10000229
H    20.76999855  15.70000076  49.40000153
H    23.25000000  15.93000031  49.94999695
H    22.10000038  16.62999916  54.08000183
H    13.82999992  15.81999969  53.87000275
H    24.94999886  16.73999977  51.51000214
H    24.23000145  17.78000069  52.64999771
S    13.40000057  14.55999947  49.27000046
C    10.65000057  14.45000076  49.91000366
C    11.95000076  14.70000076  50.28999710
C    12.28000069  15.19000053  51.59000015
C    11.31000042  15.27999973  52.56999969
C     9.98000050  14.88000011  52.28000259
C     8.96000004  14.85999966  53.27000046
C     7.64999962  14.68000031  52.90000153
C     7.27999973  14.42999935  51.55000305
C     8.28999996  14.32000065  50.61999893
C     9.65999985  14.57999992  50.90999985
C    13.71999931  15.21000004  51.79999924
C    14.47999954  14.86999989  50.65000153
C    15.86999989  14.80999947  50.56000137
C     5.88999987  13.99000072  51.17000198
H     5.48396492  14.60261440  50.36505508
H    10.31000042  14.21000004  48.89999771
H    11.50000000  15.59999943  53.59000397
H     9.22999954  15.32999992  54.20999908
H     6.84000015  14.85000038  53.60000229
H     8.03999996  14.04000092  49.59999847
H    16.39000130  14.60000038  49.62999725
H     5.23000002  14.01000023  52.04999924
H     5.84999990  12.92000008  50.93000031
