96

S    17.01000023  15.73999977  60.24000168
C    19.60000038  16.11999893  59.34999847
C    18.37000084  15.54999924  59.12000275
C    18.01000023  15.00000000  57.84999847
C    19.01000023  14.88000011  56.90000153
C    20.30999947  15.39000034  57.11999893
C    21.38000107  15.24000072  56.19999695
C    22.67000008  15.62000084  56.50000000
C    22.98999977  16.22999954  57.74000168
C    21.93000031  16.50000000  58.57999802
C    20.59000015  16.09000015  58.34000015
C    16.56999969  14.88999939  57.70999908
C    15.92000008  15.34999943  58.88999939
C    14.52999973  15.42000008  58.90999603
C    24.44000053  16.44000053  58.09999847
H    24.76670837  15.72266102  58.85285187
H    19.70000076  16.60000038  60.31999969
H    18.89000130  14.21000004  56.04999924
H    21.28999901  14.68999958  55.27000046
H    23.43000031  15.32999992  55.77000046
H    22.04999924  16.87999916  59.59999847
H    14.11999893  15.59999943  59.88999939
H    25.19000053  16.44000053  57.29999924
H    24.40000153  17.39999962  58.62999725
S    13.35000038  14.09999943  55.34999847
C    10.62000084  14.52000046  55.86000061
C    11.92999935  14.56999969  56.29000092
C    12.32999992  15.05000019  57.57999802
C    11.35000038  15.39000034  58.48999786
C     9.98999977  15.15999985  58.15000153
C     8.98999977  15.31000042  59.15000153
C     7.67000008  15.14000034  58.81000137
C     7.30000019  14.51000023  57.58999634
C     8.26000023  14.29999924  56.63000107
C     9.61999989  14.63999939  56.86000061
C    13.76999950  15.01999950  57.80000305
C    14.47000027  14.63000107  56.63000107
C    15.85000038  14.56999969  56.56000137
C     5.95000029  13.83999920  57.47000122
H     5.36591673  14.39559078  56.73633575
H    10.44000053  13.94999981  54.94999695
H    11.56999969  15.80999947  59.47000122
H     9.15999985  15.55999947  60.20000076
H     6.94000006  15.32999992  59.58000183
H     8.02999973  13.86000061  55.65999985
H    16.39999962  14.30999947  55.65000153
H     5.40000010  13.82999992  58.41999817
H     6.06999969  12.79000092  57.18999863
S    13.94999981  12.50000000  52.27000427
C    11.30000019  12.02999973  52.93000031
C    12.63000011  11.77999973  53.20999908
C    13.02999973  11.02000046  54.34999847
C    12.05000019  10.60999966  55.22999573
C    10.67999935  10.80000019  54.93999863
C     9.64999962  10.15999985  55.68000031
C     8.31999969  10.25000000  55.34999847
C     7.92999983  11.05000019  54.23999786
C     8.89000034  11.63000011  53.43999863
C    10.26999950  11.54000092  53.76999664
C    14.47999954  11.10000038  54.52999878
C    15.07999992  11.84000015  53.47000122
C    16.40999985  12.23000050  53.56999969
C     6.48999977  11.44999981  54.02999878
H     5.99305534  10.84656715  53.27038193
H    10.98000050  12.75000000  52.18000031
H    12.42000008  10.00000000  56.04999924
H     9.92000008   9.59999943  56.56999969
H     7.57999992   9.77000046  55.98999786
H     8.56000042  12.18000031  52.56000137
H    16.75000000  12.89999962  52.77999878
H     5.95000029  11.46999931  54.99000168
H     6.40999985  12.46999931  53.62999725
S    17.70000076  10.62000084  56.95999908
C    20.43000031  11.21000099  56.38999939
C    19.09000015  11.23000050  56.04999924
C    18.64999962  11.77999973  54.79999924
C    19.60000038  12.35000038  53.97999573
C    20.97999954  12.23000050  54.25000000
C    21.93000031  12.77999973  53.34000015
C    23.26000023  12.55000019  53.62999725
C    23.71000099  12.05000019  54.87999725
C    22.79999924  11.69000053  55.84999847
C    21.42000008  11.72999954  55.52000046
C    17.20000076  11.79999924  54.62999725
C    16.54999924  11.16000080  55.72000122
C    15.19999981  10.84000015  55.70000076
C    25.19000053  11.76000023  55.06999969
H    25.56119537  12.08836555  56.04081726
H    20.65999985  10.78999996  57.36999893
H    19.25000000  12.86000061  53.08000183
H    21.68999863  13.21000004  52.36999893
H    23.95999908  12.64999962  52.81000137
H    22.95999908  11.26000023  56.84000015
H    14.73999977  10.31000042  56.52999878
H    25.72999954  12.22000027  54.23999786
H    25.26000023  10.69000053  54.87999725
