96

S    16.81999969  15.72000027  60.14999771
C    19.47999954  15.92000008  59.48999786
C    18.22000122  15.55999947  59.08000183
C    17.82999992  15.21000004  57.74000168
C    18.84000015  15.07999992  56.79999924
C    20.17999840  15.36999893  57.15000153
C    21.25000000  15.10000038  56.25999832
C    22.53000069  15.31000042  56.70999908
C    22.84000015  15.95999908  57.93000031
C    21.80999947  16.17000008  58.81999969
C    20.46999931  15.82999992  58.47999954
C    16.38000107  15.19000053  57.55000305
C    15.75000000  15.62999916  58.74000168
C    14.37999916  15.75000000  58.92000198
C    24.21999931  16.39999962  58.34999847
H    24.71138954  15.68071938  59.00518799
H    19.65999985  16.36000061  60.47000122
H    18.70000076  14.70000076  55.79000092
H    21.02999878  14.73000050  55.26000214
H    23.36000061  15.15999985  56.02000427
H    22.06999969  16.46000099  59.84000397
H    14.01000023  16.09000015  59.87999725
H    24.82000160  16.72999954  57.49000168
H    24.04000092  17.28999901  58.95000076
S    13.04999924  14.63999939  55.31000137
C    10.43000031  14.53999996  56.17000198
C    11.72999954  14.88000011  56.45999908
C    12.10999966  15.32999992  57.77000046
C    11.16000080  15.47999954  58.75999832
C     9.81999969  15.10000038  58.53000259
C     8.73999977  15.03999901  59.45999908
C     7.44999981  14.75999928  59.06999969
C     7.09999990  14.35999966  57.75000000
C     8.15999985  14.26000023  56.86999893
C     9.47000027  14.70999908  57.18999863
C    13.55999947  15.36000061  57.84999847
C    14.19000053  14.96000099  56.63999939
C    15.55999947  14.84000015  56.46999741
C     5.73999977  13.85000038  57.36000061
H     5.19921970  14.54020596  56.71248627
H    10.17000008  14.01000023  55.25000000
H    11.59000015  15.67999935  59.73999786
H     8.94999981  15.42000008  60.45000076
H     6.71000004  14.68999958  59.86000061
H     8.15999985  13.69999981  55.93999863
H    15.98000050  14.63000107  55.48999786
H     5.07999992  13.73999977  58.22999954
H     5.73999977  12.84999943  56.90999985
S    17.05999947  16.55999947  54.13000107
C    19.78999901  16.53000069  53.43999863
C    18.47999954  16.25000000  53.11999893
C    18.17000008  15.81999969  51.79000092
C    19.14999962  15.47000027  50.89000320
C    20.48999977  15.67000008  51.30000305
C    21.53000069  15.52000046  50.34000015
C    22.84000015  15.84000015  50.61999893
C    23.13999939  16.59000015  51.79000092
C    22.15999985  16.86000061  52.71999741
C    20.85000038  16.32999992  52.51999664
C    16.72000122  15.78999996  51.62000275
C    16.01000023  16.36000061  52.70999908
C    14.63000107  16.32999992  52.77999878
C    24.51999855  17.10000038  52.12999725
H    25.03037262  16.34861565  52.73252487
H    20.10000038  16.98999977  54.38000107
H    18.96000099  15.18000031  49.86000061
H    21.15999985  15.26000023  49.34999847
H    23.61999893  15.62999916  49.89999771
H    22.39999962  17.27000046  53.69999695
H    14.17000008  16.54999924  53.74000168
H    25.06999969  17.30999947  51.20999908
H    24.43000031  18.06999969  52.63000107
S    13.53999996  14.93000031  49.22000122
C    10.88000107  14.70000076  49.97000122
C    12.17000008  14.96999931  50.34999847
C    12.51000023  15.52000046  51.63000107
C    11.50000000  15.80000019  52.51999664
C    10.15999985  15.51000023  52.15999985
C     9.11000061  15.60999966  53.11999893
C     7.82000017  15.24000072  52.84000015
C     7.44000006  14.85000038  51.52999878
C     8.45000076  14.68000031  50.59999847
C     9.82999992  14.91000080  50.90000153
C    13.92000008  15.88000107  51.65999985
C    14.63999939  15.46000004  50.51000214
C    16.03000069  15.39000034  50.47000122
C     6.05000019  14.34999943  51.22000122
H     5.48836422  15.09647751  50.65836334
H    10.65999985  14.34000015  48.96999741
H    11.72999954  16.46000099  53.34999847
H     9.42000008  15.98999977  54.09000015
H     7.00999975  15.21000004  53.56999969
H     8.13000011  14.27999973  49.65000153
H    16.53000069  14.88000011  49.65999985
H     5.50000000  14.13000011  52.14000320
H     6.05999994  13.40999985  50.65999985
