96

S    16.77000046  15.65000057  60.06999969
C    19.40000153  15.95999908  59.34000015
C    18.18000031  15.39999962  59.02000046
C    17.85000038  14.85000038  57.75000000
C    18.86000061  14.68000031  56.81999969
C    20.17999840  15.06000042  57.18000031
C    21.25999832  14.91000080  56.25999832
C    22.53999901  15.26999950  56.59999847
C    22.77000046  16.09000015  57.72999573
C    21.68999863  16.46000099  58.50000000
C    20.40999985  15.85999966  58.34999847
C    16.40999985  14.88000011  57.52999878
C    15.71000004  15.31000042  58.68999863
C    14.32000065  15.38000011  58.61999893
C    24.14999962  16.59000015  58.09000015
H    24.64778900  15.84331512  58.70868301
H    19.51000023  16.61999893  60.20000076
H    18.63000107  14.14999962  55.90000153
H    20.98999977  14.73000050  55.21999741
H    23.31000137  15.13000011  55.84000015
H    21.84999847  17.10000038  59.36999893
H    13.73999977  15.67000008  59.50000000
H    24.70999908  16.84999847  57.18000031
H    24.04999924  17.53000069  58.63999939
S    13.23999977  14.17000008  54.99000168
C    10.53999996  14.09000015  55.63999939
C    11.82000065  14.42999935  56.02000427
C    12.17000008  14.93999958  57.30999756
C    11.10999966  15.11000061  58.18000031
C     9.77000046  14.81999969  57.81000137
C     8.73999977  14.85000038  58.80000305
C     7.49000025  14.34999943  58.54000092
C     7.16000032  13.89999962  57.22999954
C     8.10999966  13.89999962  56.23000336
C     9.44000053  14.29999924  56.51000214
C    13.61999989  15.00000000  57.48000336
C    14.32999992  14.56999969  56.32999802
C    15.72000027  14.50000000  56.37000275
C     5.80999947  13.30000019  56.90999985
H     5.42555666  13.79835224  56.02008438
H    10.44000053  13.56999969  54.69999695
H    11.36000061  15.39000034  59.20000076
H     9.11999989  15.03000069  59.79999924
H     6.69000053  14.22999954  59.27000046
H     7.83999968  13.35000038  55.33000183
H    16.29999924  14.11000061  55.54000092
H     5.13000011  13.50000000  57.75000000
H     6.05000019  12.23999977  56.77000046
S    17.32999992  16.25000000  54.08000183
C    20.02000046  16.46999931  53.34999847
C    18.73999977  16.09000015  53.00000000
C    18.34000015  15.65000057  51.70000076
C    19.42000008  15.47000027  50.84999847
C    20.76000023  15.86999989  51.09000397
C    21.87000084  15.65000057  50.21999741
C    23.15000153  16.01000023  50.58000183
C    23.39999962  16.61999893  51.83000183
C    22.36999893  16.79999924  52.72999573
C    21.02999878  16.47999954  52.36000061
C    16.90999985  15.42000008  51.59000015
C    16.21999931  15.75000000  52.77999878
C    14.85000038  15.93000031  52.84000015
C    24.80999947  16.95000076  52.23999786
H    25.27862549  16.16185570  52.82933426
H    20.22999954  16.67000008  54.38999939
H    19.26000023  14.96000099  49.89999771
H    21.70000076  14.85999966  49.50000000
H    24.03000069  15.72000027  50.01999664
H    22.46000099  17.07999992  53.77999878
H    14.37000084  16.36999893  53.70999908
H    25.43999863  17.20999908  51.37000275
H    24.80999947  17.84000015  52.88999939
S    13.63000011  14.68999958  49.27999878
C    10.93999958  14.63000107  49.93000031
C    12.23000050  14.81999969  50.35999680
C    12.64999962  15.34000015  51.63000107
C    11.64999962  15.65000057  52.51999664
C    10.31999969  15.29999924  52.18999863
C     9.22000027  15.51000023  53.08000183
C     7.95000029  15.11000061  52.74000168
C     7.59000015  14.52000046  51.49000168
C     8.64000034  14.21000004  50.65999985
C     9.94999981  14.67000008  50.94999695
C    14.09999943  15.43000031  51.76000214
C    14.78000069  14.98000050  50.59999847
C    16.17000008  14.96000099  50.50000000
C     6.17999983  14.04999924  51.20999908
H     5.83822107  14.52706623  50.29146957
H    10.64000034  14.11000061  49.02999878
H    11.95000076  15.90999985  53.54000092
H     9.40999985  15.81999969  54.09999847
H     7.17000008  15.22999954  53.48999786
H     8.47999954  13.94999981  49.61000061
H    16.69000053  14.82999992  49.55999756
H     5.46000004  14.23999977  52.01000214
H     6.24000025  12.94999981  51.13999939
