96

S    16.31000137  15.73999977  60.13000107
C    19.03000069  15.59000015  59.62999725
C    17.76000023  15.29999924  59.20000076
C    17.43999863  14.68000031  57.95000076
C    18.50000000  14.34000015  57.11999893
C    19.82999992  14.65000057  57.47000122
C    20.81999969  14.68000031  56.44000244
C    22.11000061  14.98999977  56.79000092
C    22.40999985  15.62999916  58.02999878
C    21.40999985  15.77000046  58.95999908
C    20.09000015  15.29999924  58.73000336
C    16.02000046  14.67000008  57.63999939
C    15.31999969  15.15999985  58.77999878
C    13.93000031  15.22999954  58.81000137
C    23.75999832  16.25000000  58.27999878
H    24.37911606  15.58107090  58.87776947
H    19.17000008  16.21999931  60.51000214
H    18.32999992  14.06000042  56.07999802
H    20.62000084  14.27999973  55.45000076
H    22.86000061  14.78000069  56.04000092
H    21.67000008  16.21999931  59.92000198
H    13.35000038  15.48999977  59.68999863
H    24.15999985  16.45000076  57.27000427
H    23.65999985  17.23999977  58.75000000
S    12.81999969  14.09000015  55.19000244
C    10.07999992  13.89000034  55.96000290
C    11.39999962  14.18000031  56.25999832
C    11.77000046  14.65999985  57.55000305
C    10.78999996  14.93000031  58.48999786
C     9.42000008  14.78000069  58.18000031
C     8.38000011  15.11000061  59.09999847
C     7.05999947  14.93000031  58.76999664
C     6.75000000  14.45000076  57.47000122
C     7.69999981  14.18000031  56.52000046
C     9.06999969  14.27999973  56.88000107
C    13.21000004  14.75999928  57.70999908
C    13.93000031  14.40000057  56.53999710
C    15.31000042  14.27000046  56.50000000
C     5.31000042  14.09999943  57.15999985
H     4.98298550  14.54786777  56.22161102
H     9.80000019  13.55000019  54.97000122
H    10.98000050  15.32999992  59.47999954
H     8.55000019  15.57999992  60.06999969
H     6.30999994  14.98999977  59.55999756
H     7.36999989  13.69999981  55.59999847
H    15.76000023  13.90999985  55.58000183
H     4.53000021  14.37999916  57.87000275
H     5.19000006  13.01000023  57.04999924
S    13.27000046  12.17000008  52.49000168
C    10.57999992  11.54000092  53.15999985
C    11.92000008  11.51000023  53.43999863
C    12.35000038  10.93999958  54.68000031
C    11.50000000  10.31000042  55.58000183
C    10.11999989  10.31000042  55.27000046
C     9.09000015   9.81000042  56.11999893
C     7.75000000   9.94000053  55.86000061
C     7.34000015  10.57000065  54.65999985
C     8.27999973  10.98999977  53.75000000
C     9.67000008  10.85999966  54.02000046
C    13.78999901  10.95000076  54.86000061
C    14.37999916  11.64000034  53.76999664
C    15.72000027  11.98999977  53.80000305
C     5.86000013  10.81999969  54.52000046
H     5.54540539  10.44105625  53.54761505
H    10.22999954  12.20000076  52.36999893
H    11.89000034   9.85999966  56.49000168
H     9.48999977   9.48000050  57.08000183
H     7.07000017   9.68999958  56.68000031
H     8.14000034  11.51999950  52.81000137
H    16.23999977  12.31999969  52.90000153
H     5.38000011  10.27999973  55.34999847
H     5.56999969  11.87999916  54.59000015
S    17.07999992  10.32999992  57.21000290
C    19.73999977  10.80999947  56.45000076
C    18.39999962  10.98000050  56.20999908
C    17.92000008  11.56999969  54.99000168
C    18.85000038  12.03999996  54.06999969
C    20.23999977  11.87999916  54.29999924
C    21.15999985  12.30000019  53.30999756
C    22.52000046  12.17000008  53.48999786
C    23.00000000  11.75000000  54.75999832
C    22.11000061  11.38000011  55.73999786
C    20.69999886  11.35000038  55.56000137
C    16.47999954  11.44999981  54.84000397
C    15.92000008  10.72000027  55.91999817
C    14.55999947  10.43000031  55.90999985
C    24.47999954  11.57999992  55.00000000
H    24.73581123  11.75764656  56.04455948
H    20.06000137  10.29999924  57.36000061
H    18.51000023  12.35999966  53.09000015
H    20.78000069  12.81999969  52.43000031
H    23.12000084  12.46000099  52.63999939
H    22.57999802  11.10999966  56.68000031
H    14.06999969  10.01000023  56.77999878
H    24.96000099  12.38000011  54.41999817
H    24.77000046  10.57000065  54.71000290
