96

S    16.84999847  16.02000046  60.21999741
C    19.57999992  16.18000031  59.52000046
C    18.29000092  15.81999969  59.20000076
C    17.97000122  15.10000038  58.00000000
C    18.98999977  14.86999989  57.09000015
C    20.28000069  15.36000061  57.36000061
C    21.35999870  15.31999969  56.43000031
C    22.67999840  15.52000046  56.77000046
C    23.03999901  15.77999973  58.11999893
C    22.03000069  16.03999901  59.01000214
C    20.65999985  15.85999966  58.66000366
C    16.54000092  14.84000015  57.84999847
C    15.81999969  15.26999950  58.99000168
C    14.45000076  15.47000027  58.93000031
C    24.50000000  16.10999870  58.34000015
H    24.99907684  15.56101513  59.13852310
H    19.81999969  16.59000015  60.48999786
H    18.76000023  14.70999908  56.04000092
H    21.15999985  14.93000031  55.44000244
H    23.38999939  15.42000008  55.96000290
H    22.25000000  16.46999931  59.99000168
H    13.88000011  15.90000057  59.75000000
H    25.10999870  16.21000099  57.43000031
H    24.59000015  17.17000008  58.60000229
S    13.32999992  14.02999973  55.45999908
C    10.62999916  14.14999962  56.00000000
C    11.89000034  14.55000019  56.35000229
C    12.28000069  15.11000061  57.62000275
C    11.23000050  15.48999977  58.43999863
C     9.89999962  15.10000038  58.16999817
C     8.78999996  15.27999973  59.05000305
C     7.53999996  14.75000000  58.82999802
C     7.28999996  14.02999973  57.63000107
C     8.32999992  13.81999969  56.75000000
C     9.61000061  14.39000034  56.95000076
C    13.71999931  15.06000042  57.81000137
C    14.46000004  14.44000053  56.77000046
C    15.85000038  14.40999985  56.70999908
C     5.89999962  13.50000000  57.32999802
H     5.57897282  14.11351871  56.48819351
H    10.39000034  13.30999947  55.34000015
H    11.46999931  15.98000050  59.38000107
H     8.94999981  15.81999969  59.98000336
H     6.76999998  14.70000076  59.59000015
H     8.23999977  13.22000027  55.84999847
H    16.38000107  14.19999981  55.79000092
H     5.28999996  13.43999958  58.23999786
H     6.00000000  12.44999981  57.04000092
S    16.97999954  16.31000137  54.29999924
C    19.67000008  16.51000023  53.69999695
C    18.42000008  16.13000107  53.27999878
C    18.07999992  15.67000008  51.97000122
C    19.12999916  15.67999935  51.06999969
C    20.42000008  16.11999893  51.43000031
C    21.48999977  16.05999947  50.48999786
C    22.72999954  16.54999924  50.84999847
C    23.05000114  17.01000023  52.15000153
C    22.01000023  17.09000015  53.04999924
C    20.69000053  16.67000008  52.72999573
C    16.62999916  15.62000084  51.79999924
C    15.88000107  15.98000050  52.95000076
C    14.51000023  16.13999939  53.04000092
C    24.48999786  17.30999947  52.50000000
H    24.98932266  16.64661407  53.20618439
H    19.82999992  16.80999947  54.72999954
H    18.93000031  15.44999981  50.01999664
H    21.35999870  15.78999996  49.45000076
H    23.52999878  16.47999954  50.11000061
H    22.15999985  17.30999947  54.10999680
H    14.04999924  16.28000069  54.01000214
H    25.06999969  17.28999901  51.56999969
H    24.57999992  18.34000015  52.88000107
S    13.48999977  14.85999966  49.40000153
C    10.84000015  14.65999985  50.02999878
C    12.06999969  15.11000061  50.44000244
C    12.36999989  15.59999943  51.75000000
C    11.31999969  15.54999924  52.64999771
C    10.01000023  15.14000034  52.29999924
C     8.92000008  15.03000069  53.20999908
C     7.67000008  14.61999989  52.83000183
C     7.46999979  14.09999943  51.52000046
C     8.48999977  14.15999985  50.59000015
C     9.77999973  14.61999989  50.97999954
C    13.81000042  15.75000000  51.88999939
C    14.53999996  15.36999893  50.73999786
C    15.93000031  15.26000023  50.63999939
C     6.14000034  13.55999947  51.06999969
H     5.68579578  14.14194870  50.26804352
H    10.67000008  14.25000000  49.03999710
H    11.49000072  15.77000046  53.69999695
H     9.03999996  15.26000023  54.27000046
H     6.83000040  14.80999947  53.50000000
H     8.34000015  13.71999931  49.61000061
H    16.54999924  14.82999992  49.86000061
H     5.52999973  13.57999992  51.97999954
H     6.26999950  12.51999950  50.73999786
