96

S    16.46999931  15.34000015  60.45999908
C    19.18000031  15.54999924  59.71000290
C    17.88999939  15.18000031  59.40000153
C    17.50000000  14.80999947  58.06999969
C    18.51000023  14.75000000  57.12999725
C    19.81999969  15.22999954  57.36999893
C    20.90999985  15.15999985  56.45000076
C    22.20999908  15.40999985  56.79999924
C    22.53000069  15.81999969  58.11999893
C    21.53000069  15.86999989  59.06999969
C    20.17999840  15.60999966  58.70999908
C    16.04999924  14.84000015  57.95999908
C    15.31000042  15.19999981  59.12000275
C    13.93000031  15.31999969  59.22999954
C    23.94000053  16.21999931  58.50999832
H    24.41632462  15.60149002  59.27069473
H    19.45000076  15.92000008  60.70000076
H    18.29000092  14.47000027  56.10000229
H    20.69999886  14.80000019  55.44000244
H    22.92000008  15.44000053  55.97999954
H    21.67000008  16.04999924  60.13000107
H    13.38000107  15.39999962  60.15999603
H    24.56000137  16.38000107  57.62000275
H    23.85999870  17.25000000  58.85000229
S    12.77999973  14.37000084  55.59000015
C    10.08999920  14.26000023  56.35000229
C    11.39999962  14.48999977  56.70000076
C    11.75000000  15.06999969  57.97000122
C    10.72999954  15.17000008  58.89999771
C     9.39000034  14.78000069  58.66000366
C     8.34999943  14.80000019  59.62999725
C     7.09999990  14.30999947  59.33000183
C     6.74000025  13.88000011  58.02999878
C     7.73999977  13.90999985  57.08000183
C     9.06999969  14.37000084  57.31999969
C    13.20000076  15.11999989  58.04999924
C    13.90999985  14.89999962  56.84999847
C    15.26999950  14.60999966  56.81999969
C     5.29999971  13.56999969  57.68000031
H     4.93035460  14.29507256  56.95492554
H     9.90999985  13.78000069  55.38999939
H    11.05999947  15.29999924  59.92000198
H     8.36000061  15.19999981  60.65000153
H     6.30000019  14.11999893  60.02999878
H     7.64999962  13.60000038  56.04999924
H    15.75000000  14.11999893  55.97999954
H     4.61999989  13.61999989  58.54000092
H     5.26999998  12.51999950  57.35000229
S    16.93000031  16.09000015  54.31000137
C    19.57999992  16.29999924  53.37999725
C    18.26000023  16.00000000  53.13999939
C    17.88999939  15.64000034  51.81000137
C    18.86000061  15.52000046  50.81999969
C    20.20999908  15.80000019  51.11000061
C    21.21000099  15.76000023  50.08999634
C    22.53000069  16.02000046  50.34999847
C    22.93999863  16.44000053  51.65000153
C    21.98999786  16.57999992  52.63000107
C    20.62000084  16.22999954  52.42000198
C    16.44000053  15.52000046  51.73999786
C    15.80999947  15.81999969  52.97000122
C    14.42000008  15.93000031  53.04000092
C    24.37000084  16.77999878  51.98999786
H    24.80522537  16.30196381  52.86758804
H    19.88000107  16.59000015  54.38999939
H    18.60999870  15.07999992  49.86000061
H    20.95999908  15.50000000  49.06999969
H    23.26999855  15.92000008  49.55999756
H    22.11000061  17.04000092  53.61000061
H    13.83999920  16.21999931  53.90999603
H    24.93000031  16.51000023  51.07999802
H    24.41999817  17.86000061  52.15000153
S    13.15000057  14.63999939  49.52999878
C    10.48999977  14.60999966  50.27999878
C    11.77000046  14.98999977  50.59000015
C    12.18000031  15.52000046  51.84999847
C    11.21999931  15.59999943  52.84000015
C     9.85999966  15.31000042  52.57999802
C     8.82000065  15.40999985  53.54999924
C     7.51999950  15.03999901  53.29999924
C     7.17000008  14.75999928  51.95000076
C     8.13000011  14.56999969  50.98999786
C     9.51000023  14.78999996  51.29000092
C    13.63000011  15.57000065  51.93000031
C    14.30999947  15.22999954  50.73999786
C    15.69000053  15.11000061  50.63000107
C     5.72000027  14.48999977  51.63000107
H     5.46388483  14.96665955  50.68379974
H    10.21000004  14.06000042  49.38000107
H    11.54999924  15.88000107  53.83999634
H     8.98999977  15.73999977  54.56999969
H     6.77999973  15.26000023  54.06999969
H     7.79999971  14.21000004  50.01999664
H    16.29999924  14.63000107  49.86000061
H     4.94000006  14.81999969  52.32999802
H     5.63000011  13.40999985  51.50000000
