96

S    16.54999924  15.60999966  60.40000153
C    19.27000046  15.55999947  59.75000000
C    17.97000122  15.29999924  59.38000107
C    17.61999893  14.73000050  58.11999893
C    18.65999985  14.47999954  57.25000000
C    19.96000099  14.96000099  57.52999878
C    21.00000000  14.96999931  56.55000305
C    22.29999924  15.29999924  56.84999847
C    22.57999802  15.90000057  58.11000061
C    21.61000061  16.07999992  59.06999969
C    20.34000015  15.48999977  58.81000137
C    16.17000008  14.70999908  57.98999786
C    15.43000031  15.25000000  59.06999969
C    14.04999924  15.36000061  59.08000183
C    24.00000000  16.32999992  58.39000320
H    24.44993210  15.72294998  59.17559433
H    19.48999977  16.14999962  60.63999939
H    18.29000092  14.14000034  56.27999878
H    20.81000137  14.80000019  55.50000000
H    23.09999847  15.19000053  56.12999725
H    21.90999985  16.52000046  60.00999832
H    13.43999958  15.62000084  59.93999863
H    24.59000015  16.51000023  57.48000336
H    23.87000084  17.31999969  58.82999802
S    13.04999924  13.97999954  55.41999817
C    10.31999969  14.06999969  56.05999756
C    11.61999893  14.30999947  56.42000198
C    11.95000076  14.88999939  57.69000244
C    10.93000031  15.26000023  58.54999924
C     9.57999992  14.96000099  58.25000000
C     8.56000042  15.15999985  59.22000122
C     7.26999998  14.70000076  59.05000305
C     6.97000027  13.97999954  57.87000275
C     7.96000004  13.78000069  56.93999863
C     9.30999947  14.22999954  57.04000092
C    13.38999939  14.96000099  57.90999985
C    14.07999992  14.48999977  56.77000046
C    15.44999981  14.26000023  56.86999893
C     5.55999994  13.50999928  57.56999969
H     5.03212214  14.10921192  56.82811737
H    10.11999989  13.80000019  55.01999664
H    11.31000042  15.75000000  59.45000076
H     8.82000065  15.65999985  60.13999939
H     6.44999981  14.82999992  59.75999832
H     7.67000008  13.31999969  55.98999786
H    15.90999985  13.82999992  55.98999786
H     4.96000004  13.53000069  58.48999786
H     5.50000000  12.46000099  57.25999832
S    16.87000084  16.13000107  54.38999939
C    19.55999947  16.18999863  53.70999908
C    18.27999878  15.84000015  53.34999847
C    17.94999886  15.24000072  52.09000015
C    18.94000053  15.13000011  51.13999939
C    20.27000046  15.47000027  51.49000168
C    21.35999870  15.26000023  50.59000015
C    22.65999985  15.34999943  51.02000427
C    23.02999878  15.76000023  52.32999802
C    21.98999786  16.14999962  53.13999939
C    20.62000084  15.90000057  52.81999969
C    16.50000000  15.19000053  51.95000076
C    15.77999973  15.67999935  53.06999969
C    14.39000034  15.78999996  53.04999924
C    24.41999817  16.20000076  52.71999741
H    24.95239449  15.39785862  53.23109818
H    19.71999931  16.80999947  54.59000015
H    18.68000031  14.67000008  50.19000244
H    21.09999847  14.91000080  49.59000015
H    23.50000000  15.01999950  50.40999985
H    22.20000076  16.63999939  54.08000183
H    13.86999989  16.10000038  53.95000076
H    24.82000160  16.53000069  51.75000000
H    24.37999916  17.12000084  53.30999756
S    13.36999989  14.48999977  49.43999863
C    10.59000015  14.57999992  50.06999969
C    11.90999985  14.73000050  50.43000031
C    12.25000000  15.26000023  51.70999908
C    11.26000023  15.59000015  52.63000107
C     9.89000034  15.44000053  52.30999756
C     8.89000034  15.55999947  53.30999756
C     7.60999966  15.14000034  53.04000092
C     7.26000023  14.55000019  51.79999924
C     8.25000000  14.37999916  50.86000061
C     9.57999992  14.85000038  51.03000259
C    13.68000031  15.26000023  51.97000122
C    14.40000057  14.78000069  50.84999847
C    15.78999996  14.67000008  50.86000061
C     5.84000015  14.06999969  51.59000015
H     5.32733250  14.67523289  50.84236145
H    10.48999977  14.06000042  49.12000275
H    11.40999985  15.77000046  53.68999863
H     9.04999924  15.80000019  54.36000061
H     6.83000040  15.24000072  53.80000305
H     8.03999996  13.78999901  49.97000122
H    16.29999924  14.40000057  49.93999863
H     5.31000042  14.11999893  52.55000305
H     5.84999990  13.00000000  51.33999634
