96

S    16.69999886  15.71000004  60.52000046
C    19.38999939  16.01000023  59.91000366
C    18.12999916  15.67000008  59.47000122
C    17.79000092  15.26000023  58.13999939
C    18.78000069  15.11000061  57.19999695
C    20.12000084  15.34999943  57.60000229
C    21.09999847  15.44000053  56.56999969
C    22.39999962  15.72000027  56.90999985
C    22.70000076  16.13000107  58.23999786
C    21.73000145  16.18999863  59.22000122
C    20.39999962  15.77000046  58.95000076
C    16.35000038  15.06000042  57.97000122
C    15.62999916  15.36999893  59.15000153
C    14.23999977  15.43000031  59.25000000
C    24.11999893  16.53000069  58.55999756
H    24.64869308  15.80126095  59.17442322
H    19.60000038  16.39000130  60.90999985
H    18.51000023  14.78999996  56.19999695
H    20.76999855  15.21000004  55.56000137
H    23.22000122  15.65000057  56.19999695
H    21.80999947  16.60000038  60.21999741
H    13.66000080  15.71000004  60.12000275
H    24.86999893  16.67000008  57.77999878
H    24.00000000  17.38000107  59.25000000
S    13.20000076  14.14999962  55.56999969
C    10.52999973  13.99000072  56.25999832
C    11.78999996  14.45000076  56.59999847
C    12.13999939  14.93000031  57.90000153
C    11.14999962  14.94999981  58.87000275
C     9.81000042  14.75000000  58.47000122
C     8.73000050  14.85999966  59.40000153
C     7.44000006  14.60000038  59.00000000
C     7.13999987  13.99000072  57.75000000
C     8.15999985  13.80000019  56.84000015
C     9.48999977  14.18000031  57.18999863
C    13.57999992  15.01999950  58.09000015
C    14.26000023  14.65000057  56.90000153
C    15.65000057  14.61999989  56.84000015
C     5.73999977  13.60999966  57.35000229
H     5.25401735  14.28179932  56.64246750
H    10.32999992  13.63000011  55.25000000
H    11.39999962  15.19999981  59.88999939
H     9.02000046  15.00000000  60.43000031
H     6.67999983  14.73999977  59.77000427
H     8.02999973  13.40000057  55.84000015
H    16.21000099  14.44000053  55.93000031
H     5.27999973  13.73000050  58.34999847
H     5.80999947  12.56999969  57.01000214
S    13.55999947  12.13000107  52.29000092
C    10.90000057  11.84999943  52.93000031
C    12.20000076  11.59000015  53.29000092
C    12.61000061  11.05000019  54.54999924
C    11.63000011  10.67000008  55.45000076
C    10.26000023  10.90000057  55.14999771
C     9.21000004  10.31000042  55.90999985
C     7.88000011  10.42000008  55.56000137
C     7.57000017  11.18000031  54.40000153
C     8.55000019  11.72000027  53.60000229
C     9.92000008  11.49000072  53.88000107
C    14.04000092  11.19999981  54.75000000
C    14.67000008  11.82999992  53.64999771
C    15.98999977  12.27000046  53.66000366
C     6.11000013  11.52999973  54.15000153
H     5.78222466  11.03121090  53.23793030
H    10.62999916  12.38000011  52.01000214
H    11.89000034  10.29999924  56.44000244
H     9.52999973   9.65999985  56.72000122
H     7.02000046   9.92999935  56.00999832
H     8.31999969  12.31999969  52.71999741
H    16.40999985  12.81000042  52.81999969
H     5.46000004  11.25000000  54.98000336
H     6.11000013  12.63000011  54.09000015
S    17.36999893  10.77999973  57.09000015
C    20.03000069  11.51000023  56.45000076
C    18.68000031  11.63000011  56.23000336
C    18.22000122  12.18999958  54.99000168
C    19.11000061  12.84000015  54.15999985
C    20.51000214  12.79000092  54.36999893
C    21.48999977  13.36999989  53.50999832
C    22.78000069  12.90999985  53.61000061
C    23.25000000  12.22000027  54.75999832
C    22.32999992  11.71000004  55.65000153
C    20.95000076  12.03999996  55.51000214
C    16.79999924  11.97999954  54.77000427
C    16.21000099  11.23000050  55.81999969
C    14.88999939  10.80000019  55.79000092
C    24.69000053  11.82000065  54.93999863
H    25.03953171  12.01973343  55.95293427
H    20.38999939  10.98999977  57.34000397
H    18.72999954  13.30000019  53.25000000
H    21.18000031  14.01000023  52.68000031
H    23.44000053  12.93000031  52.75000000
H    22.60999870  11.10000038  56.50000000
H    14.57999992  10.21000004  56.63999939
H    25.27000046  12.44999981  54.25000000
H    24.92000198  10.78999996  54.61000061
