96

S    16.57999992  15.85999966  60.14999771
C    19.32999992  15.75000000  59.64000320
C    18.04000092  15.42000008  59.26000214
C    17.72999954  14.78999996  58.01000214
C    18.73999977  14.77000046  57.05999756
C    20.06999969  15.13000011  57.36999893
C    21.14000130  15.03999901  56.43000031
C    22.39000130  15.39999962  56.86000061
C    22.70999908  15.85999966  58.15999985
C    21.67000008  16.03000069  59.05000305
C    20.38000107  15.52000046  58.72000122
C    16.28999901  14.63000107  57.85999680
C    15.51000023  15.26999950  58.86000061
C    14.13000011  15.44000053  58.87000275
C    24.14999962  16.13999939  58.53000259
H    24.43511391  15.68381786  59.47800446
H    19.38999939  16.46000099  60.45000076
H    18.50000000  14.55999947  56.03000259
H    21.00000000  14.70999908  55.40000153
H    23.16999817  15.36000061  56.11000061
H    21.87000084  16.45000076  60.02999878
H    13.64999962  15.76000023  59.79000092
H    24.82999992  15.70000076  57.77999878
H    24.40000153  17.20999908  58.64999771
S    13.01000023  13.80000019  55.44000244
C    10.29000092  13.93000031  56.13999939
C    11.59000015  14.30999947  56.38999939
C    11.97999954  15.00000000  57.57999802
C    11.00000000  15.39999962  58.47999954
C     9.67000008  14.93999958  58.33000183
C     8.73000050  15.01000023  59.40000153
C     7.42999983  14.63000107  59.15999985
C     7.00999975  14.14999962  57.88999939
C     7.96000004  13.85000038  56.93999863
C     9.31999969  14.22999954  57.12999725
C    13.42000008  14.94999981  57.77000046
C    14.13000011  14.32999992  56.70999908
C    15.52000046  14.26000023  56.76000214
C     5.60999966  13.66000080  57.65999603
H     5.09988213  14.09926796  56.80271912
H    10.01999950  13.23999977  55.34999847
H    11.23999977  15.57000065  59.52000046
H     8.98999977  15.53999996  60.31999969
H     6.76000023  14.70999908  60.00999832
H     7.73999977  13.17999935  56.11999893
H    16.06999969  13.96000004  55.86999893
H     5.03999996  13.81999969  58.57999802
H     5.59000015  12.57999992  57.47000122
S    13.30000019  12.00000000  52.49000168
C    10.64000034  11.59999943  53.23999786
C    11.97000027  11.30000019  53.43999863
C    12.42000008  10.62999916  54.61999893
C    11.44000053  10.03000069  55.40000153
C    10.07999992  10.27999973  55.13999939
C     9.07999992   9.82999992  56.05999756
C     7.73999977  10.03999901  55.84999847
C     7.30000019  10.75000000  54.69999695
C     8.22000027  11.33999920  53.86000061
C     9.59999943  11.03999996  54.02000046
C    13.86000061  10.80000019  54.79000092
C    14.48999977  11.36000061  53.63999939
C    15.84000015  11.68000031  53.62999725
C     5.84000015  11.10999966  54.54999924
H     5.51166964  10.58895397  53.65066147
H    10.29999924  12.25999928  52.44999695
H    11.84999943   9.51000023  56.26999664
H     9.44000053   9.31999969  56.95000076
H     7.11999989   9.57999992  56.60999680
H     8.01000023  12.15000057  53.16999817
H    16.18999863  12.17000008  52.72999573
H     5.26000023  10.84000015  55.45000076
H     5.73999977  12.20000076  54.45000076
S    17.19000053  10.52000046  57.18000031
C    19.85000038  11.19999981  56.47999573
C    18.48999977  11.26000023  56.24000168
C    17.98999977  11.78999996  55.00999832
C    18.89999962  12.28000069  54.09000015
C    20.29999924  12.28000069  54.31000137
C    21.25000000  12.69000053  53.33000183
C    22.60999870  12.56000042  53.48999786
C    23.01000214  11.97000027  54.72000122
C    22.17000008  11.69000053  55.77999878
C    20.76999855  11.67000008  55.52000046
C    16.56999969  11.51999950  54.80999756
C    16.01000023  10.78999996  55.89000320
C    14.67000008  10.39999962  55.84999847
C    24.50000000  11.82999992  54.89999771
H    24.74253273  11.95126629  55.95573044
H    20.25000000  10.95000076  57.45999908
H    18.53999901  12.46000099  53.08000183
H    20.84000015  13.21000004  52.47000122
H    23.38999939  12.82999992  52.78999710
H    22.52000046  11.38000011  56.76000214
H    14.27000046   9.77000046  56.63000107
H    25.06999969  12.51000023  54.25000000
H    24.70000076  10.82999992  54.51000214
