96

S    16.54000092  15.69000053  60.27999878
C    19.25000000  15.88000107  59.50000000
C    17.94999886  15.57000065  59.20999908
C    17.60000038  14.96000099  57.95999908
C    18.54999924  14.70999908  56.97999954
C    19.89999962  15.03000069  57.25999832
C    20.92000008  14.88000011  56.26999664
C    22.21999931  15.21999931  56.55000305
C    22.57999802  15.71000004  57.83000183
C    21.61000061  15.93999958  58.77999878
C    20.25000000  15.57000065  58.54000092
C    16.15999985  14.88000011  57.80000305
C    15.43000031  15.34000015  58.93000031
C    14.04999924  15.36999893  59.02999878
C    24.00000000  16.10999870  58.18000031
H    24.41949463  15.47720242  58.96210861
H    19.47999954  16.43000031  60.41999817
H    18.37000084  14.21000004  56.03000259
H    20.61000061  14.60999966  55.27000046
H    23.05000114  15.05000019  55.86999893
H    21.87999916  16.39000130  59.72999954
H    13.59000015  15.60999966  59.98000336
H    24.54999924  16.13999939  57.22999954
H    24.11999893  17.15999985  58.47000122
S    12.86999893  14.13000011  55.47999954
C    10.25000000  14.32999992  56.02000427
C    11.50000000  14.68000031  56.46999741
C    11.82000065  15.19999981  57.77000046
C    10.77000046  15.46000004  58.61999893
C     9.48000050  15.01999950  58.26000214
C     8.34999943  15.11999989  59.12000275
C     7.07999992  14.70999908  58.79000092
C     6.83000040  14.19999981  57.49000168
C     7.90000010  13.96000004  56.66999817
C     9.19999981  14.47000027  56.95999908
C    13.27000046  15.14999962  57.88000107
C    13.99000072  14.73000050  56.72999954
C    15.36000061  14.52999973  56.70999908
C     5.40000010  13.78000069  57.22999954
H     4.96502542  14.27202129  56.36005020
H    10.10000038  13.66000080  55.17000198
H    11.03000069  15.76000023  59.64000320
H     8.38000011  15.44000053  60.15999603
H     6.35999966  14.73000050  59.61000061
H     7.77999973  13.47000027  55.70000076
H    15.85999966  14.11000061  55.84000015
H     4.78999996  13.90999985  58.13999939
H     5.46000004  12.71999931  56.93000031
S    13.67000008  12.00000000  52.39999771
C    10.97000027  11.57999992  53.06999969
C    12.30999947  11.39000034  53.36999893
C    12.75000000  10.76000023  54.56999969
C    11.77000046  10.22999954  55.40000153
C    10.38000011  10.39999962  55.18000031
C     9.36999989  10.03000069  56.11000061
C     8.03999996  10.26000023  55.84000015
C     7.63000011  10.93000031  54.65999985
C     8.60999966  11.39999962  53.81000137
C    10.00000000  11.14999962  54.01000214
C    14.17000008  10.98999977  54.77000427
C    14.85000038  11.51000023  53.62999725
C    16.21999931  11.69000053  53.55999756
C     6.19999981  11.28999901  54.36000061
H     5.76006365  10.80748844  53.48722458
H    10.71000004  12.11999989  52.16999817
H    12.10000038   9.52999973  56.16000366
H     9.70000076   9.61000061  57.04999924
H     7.30999994   9.89999962  56.56000137
H     8.34000015  12.10999966  53.04000092
H    16.69999886  12.02999973  52.64999771
H     5.69000006  11.18000031  55.33000183
H     6.21000004  12.38000011  54.26000214
S    17.46000099  10.59000015  57.15999985
C    20.17000008  10.71000004  56.44000244
C    18.86000061  10.95000076  56.12999725
C    18.47999954  11.56000042  54.87999725
C    19.45000076  12.10000038  54.06000137
C    20.81999969  11.95000076  54.40999985
C    21.80999947  12.46999931  53.54000092
C    23.15999985  12.42000008  53.82999802
C    23.52000046  11.56999969  54.91000366
C    22.59000015  11.03999996  55.77000046
C    21.18999863  11.18000031  55.56999969
C    17.05000114  11.43000031  54.65999985
C    16.36999893  10.95000076  55.80999756
C    15.01000023  10.65999985  55.84000015
C    24.94999886  11.26000023  55.30000305
H    25.24089050  11.74954605  56.22942734
H    20.51000214  10.27999973  57.37999725
H    19.18000031  12.56999969  53.11999893
H    21.40000153  12.84000015  52.60000229
H    23.88000107  12.94000053  53.20000076
H    22.84000015  10.60999966  56.73999786
H    14.57999992  10.14999962  56.70000076
H    25.71000099  11.59000015  54.58000183
H    25.13000107  10.19000053  55.38000107
