96

S    17.05000114  15.82999992  60.15999603
C    19.73999977  16.11999893  59.34999847
C    18.45000076  15.72999954  59.08000183
C    18.11000061  15.32999992  57.74000168
C    19.11000061  15.18000031  56.81000137
C    20.45999908  15.47999954  57.11000061
C    21.54999924  15.05000019  56.30000305
C    22.84000015  15.26000023  56.72000122
C    23.15999985  15.95999908  57.91999817
C    22.13000107  16.32999992  58.75999832
C    20.79000092  16.03999901  58.40000153
C    16.68000031  15.07999992  57.62000275
C    15.98000050  15.39999962  58.81000137
C    14.59000015  15.51000023  58.86000061
C    24.59000015  16.21000099  58.34999847
H    24.96719551  15.62641621  59.18979263
H    19.81999969  16.46000099  60.38000107
H    18.79999924  14.85000038  55.81999969
H    21.32999802  14.55000019  55.35999680
H    23.61999893  14.91000080  56.05999756
H    22.36999893  16.65999985  59.75999832
H    14.09999943  15.77999973  59.79000092
H    25.06999969  16.02000046  57.37999725
H    24.54999924  17.28000069  58.60000229
S    13.38000107  14.68000031  55.19000244
C    10.71000004  14.32999992  56.04999924
C    11.97999954  14.81999969  56.26999664
C    12.38000011  15.31000042  57.56000137
C    11.42000008  15.42000008  58.54999924
C    10.08999920  15.01000023  58.34000015
C     9.15000057  14.91000080  59.40999985
C     7.86999989  14.47000027  59.16999817
C     7.50000000  14.06000042  57.85999680
C     8.38999939  14.02999973  56.81000137
C     9.72999954  14.45000076  57.05999756
C    13.82999992  15.31000042  57.70000076
C    14.52999973  14.94999981  56.52000046
C    15.90999985  14.78999996  56.49000168
C     6.06999969  13.61999989  57.67000198
H     5.50681686  14.30437374  57.03552628
H    10.46000004  14.04999924  55.02999878
H    11.69000053  15.67000008  59.56999969
H     9.48000050  15.25000000  60.38999939
H     7.16000032  14.59000015  59.98000336
H     8.22000027  13.48000050  55.89000320
H    16.36000061  14.34999943  55.59999847
H     5.60999966  13.59000015  58.67000198
H     6.14000034  12.64999962  57.15999985
S    17.10000038  16.40999985  53.94000244
C    19.85000038  16.27000046  53.37999725
C    18.54999924  15.93999958  53.04000092
C    18.20999908  15.36000061  51.77999878
C    19.27000046  15.11999989  50.91999817
C    20.62000084  15.40999985  51.20999908
C    21.70000076  15.26000023  50.27999878
C    22.98999977  15.54999924  50.65000153
C    23.26999855  16.21999931  51.86999893
C    22.22999954  16.45000076  52.74000168
C    20.90999985  15.98000050  52.49000168
C    16.79000092  15.47000027  51.47999573
C    16.04999924  16.01000023  52.56000137
C    14.67000008  16.22999954  52.57999802
C    24.65999985  16.65999985  52.29000092
H    25.11795616  16.14479828  53.13436127
H    20.06999969  16.87999916  54.25000000
H    19.00000000  14.73999977  49.93999863
H    21.32999802  15.06999969  49.27999878
H    23.82999802  15.19999981  50.06999969
H    22.43999863  16.95000076  53.68999863
H    14.21000004  16.54999924  53.50000000
H    25.19000053  16.55999947  51.32999802
H    24.72999954  17.75000000  52.37999725
S    13.56999969  14.68000031  49.10999680
C    10.82999992  14.78000069  49.78000259
C    12.13999939  15.08999920  50.06999969
C    12.51999950  15.53999996  51.38000107
C    11.56999969  15.82999992  52.34000397
C    10.21000004  15.51000023  52.08000183
C     9.21000004  15.57999992  53.09000015
C     7.88999987  15.31999969  52.83000183
C     7.59999990  14.75999928  51.56000137
C     8.51000023  14.55999947  50.54999924
C     9.85999966  14.96000099  50.79999924
C    13.96000004  15.73999977  51.47999573
C    14.68999958  15.25000000  50.37000275
C    16.06999969  15.07999992  50.34999847
C     6.21999979  14.14999962  51.45999908
H     5.73800898  14.63199043  50.60942841
H    10.48999977  14.19000053  48.93000031
H    11.77999973  16.21000099  53.33000183
H     9.40999985  15.93000031  54.09999847
H     7.20000029  15.14999962  53.64999771
H     8.27999973  13.89000034  49.72999954
H    16.53000069  14.51000023  49.54000092
H     5.69000006  14.25000000  52.41000366
H     6.35999966  13.07000065  51.50000000
