96

S    16.46999931  15.34000015  60.45999908
C    19.18000031  15.54999924  59.71000290
C    17.88999939  15.18000031  59.40000153
C    17.50000000  14.80999947  58.06999969
C    18.51000023  14.75000000  57.12999725
C    19.81999969  15.22999954  57.36999893
C    20.90999985  15.15999985  56.45000076
C    22.20999908  15.40999985  56.79999924
C    22.53000069  15.81999969  58.11999893
C    21.53000069  15.86999989  59.06999969
C    20.17999840  15.60999966  58.70999908
C    16.04999924  14.84000015  57.95999908
C    15.31000042  15.19999981  59.12000275
C    13.93000031  15.31999969  59.22999954
C    23.94000053  16.21999931  58.50999832
H    24.41632462  15.60149002  59.27069473
H    19.45000076  15.92000008  60.70000076
H    18.29000092  14.47000027  56.10000229
H    20.69999886  14.80000019  55.44000244
H    22.92000008  15.44000053  55.97999954
H    21.67000008  16.04999924  60.13000107
H    13.38000107  15.39999962  60.15999603
H    24.56000137  16.38000107  57.62000275
H    23.85999870  17.25000000  58.85000229
S    12.77999973  14.37000084  55.59000015
C    10.08999920  14.26000023  56.35000229
C    11.39999962  14.48999977  56.70000076
C    11.75000000  15.06999969  57.97000122
C    10.72999954  15.17000008  58.89999771
C     9.39000034  14.78000069  58.66000366
C     8.34999943  14.80000019  59.62999725
C     7.09999990  14.30999947  59.33000183
C     6.74000025  13.88000011  58.02999878
C     7.73999977  13.90999985  57.08000183
C     9.06999969  14.37000084  57.31999969
C    13.20000076  15.11999989  58.04999924
C    13.90999985  14.89999962  56.84999847
C    15.26999950  14.60999966  56.81999969
C     5.29999971  13.56999969  57.68000031
H     4.93035460  14.29507256  56.95492554
H     9.90999985  13.78000069  55.38999939
H    11.05999947  15.29999924  59.92000198
H     8.36000061  15.19999981  60.65000153
H     6.30000019  14.11999893  60.02999878
H     7.64999962  13.60000038  56.04999924
H    15.75000000  14.11999893  55.97999954
H     4.61999989  13.61999989  58.54000092
H     5.26999998  12.51999950  57.35000229
S    12.94000053  12.02000046  52.43999863
C    10.24000072  11.61000061  53.06999969
C    11.56000042  11.50000000  53.43000031
C    12.02000046  10.86999989  54.62999725
C    11.03000069  10.40999985  55.47000122
C     9.64999962  10.64000034  55.27999878
C     8.64999962  10.29000092  56.24000168
C     7.34000015  10.40999985  55.86000061
C     6.98999977  11.17000008  54.71000290
C     7.90000010  11.51999950  53.73000336
C     9.26000023  11.28000069  54.05000305
C    13.43999958  11.09000015  54.86000061
C    14.09000015  11.69000053  53.75000000
C    15.44000053  11.98999977  53.69999695
C     5.52999973  11.43000031  54.45000076
H     5.17433023  11.11701012  53.46834946
H     9.82999992  12.02000046  52.15000153
H    11.33999920  10.06999969  56.45999908
H     8.97000027   9.84000015  57.18000031
H     6.56000042   9.96000004  56.46999741
H     7.69000006  11.84000015  52.70999908
H    16.00000000  12.22000027  52.80000305
H     4.96000004  10.98999977  55.27999878
H     5.46999979  12.51999950  54.58000183
S    16.67000008  10.48999977  57.21000290
C    19.32999992  11.23999977  56.79999924
C    18.00000000  11.38000011  56.45999908
C    17.57999992  11.96000004  55.21999741
C    18.53000069  12.53999901  54.40000153
C    19.89999962  12.50000000  54.77000427
C    20.90999985  12.88000011  53.83999634
C    22.25000000  12.77999973  54.10999680
C    22.65999985  12.07999992  55.27999878
C    21.70999908  11.59000015  56.14999771
C    20.31999969  11.80999947  55.94999695
C    16.18000031  11.72999954  54.86000061
C    15.59000015  10.93000031  55.86999893
C    14.22999954  10.67000008  55.93999863
C    24.07999992  11.56999969  55.35999680
H    24.58546066  11.96155357  56.24277496
H    19.50000000  10.60999966  57.65999603
H    18.26000023  12.81999969  53.37999725
H    20.58000183  13.21000004  52.84999847
H    22.90999985  12.92000008  53.26000214
H    21.94999886  10.92000008  56.97000122
H    13.80000019  10.21000004  56.83000183
H    24.54999924  11.75000000  54.38000107
H    24.11999893  10.47000027  55.44000244
