96

S    16.79999924  15.70000076  60.20999908
C    19.52000046  15.90000057  59.43000031
C    18.22999954  15.47000027  59.19000244
C    17.84000015  14.86999989  57.95999908
C    18.78999901  14.63999939  56.97999954
C    20.13000107  15.01999950  57.18999863
C    21.17000198  14.65999985  56.27999878
C    22.47999954  15.00000000  56.56000137
C    22.86000061  15.73999977  57.70000076
C    21.84999847  16.04999924  58.57999802
C    20.48000145  15.71000004  58.40999985
C    16.40999985  14.67000008  57.71999741
C    15.75000000  15.08999920  58.89999771
C    14.37999916  15.17000008  59.10999680
C    24.30000114  16.10999870  58.00000000
H    24.80706406  15.41010761  58.66418457
H    19.79999924  16.26000023  60.41999817
H    18.50000000  14.15999985  56.04999924
H    20.86999893  14.13000011  55.38000107
H    23.29000092  14.61999989  55.94999695
H    22.06999969  16.60000038  59.48999786
H    13.93000031  15.52000046  60.02999878
H    24.76000023  16.13000107  57.01000214
H    24.27000046  17.10000038  58.48999786
S    13.02999973  14.19000053  55.54000092
C    10.39000034  14.22000027  56.29000092
C    11.69000053  14.47000027  56.66999817
C    12.09000015  14.88999939  57.97999954
C    11.09000015  15.32999992  58.82999802
C     9.73999977  15.01999950  58.56999969
C     8.64000034  15.29999924  59.43000031
C     7.35000038  15.07999992  59.02999878
C     7.07000017  14.37999916  57.83000183
C     8.10000038  13.96000004  57.01000214
C     9.42000008  14.37000084  57.31999969
C    13.53999996  14.78000069  58.06000137
C    14.17000008  14.28999996  56.88999939
C    15.54999924  14.22000027  56.72000122
C     5.71000004  13.78000069  57.55000305
H     5.11924839  14.43480968  56.90942764
H    10.21000004  13.59000015  55.43000031
H    11.39999962  15.73999977  59.79000092
H     8.89999962  15.55999947  60.45000076
H     6.61000013  15.07999992  59.82999802
H     7.81000042  13.31999969  56.18000031
H    16.00000000  13.96999931  55.76000214
H     5.23999977  13.75000000  58.54000092
H     5.95000029  12.75000000  57.25999832
S    12.86000061  11.79999924  52.60000229
C    10.22999954  11.30000019  53.22999954
C    11.54999924  11.10000038  53.55999756
C    11.98999977  10.76000023  54.87999725
C    11.05000019  10.44999981  55.84000015
C     9.68000031  10.60999966  55.54999924
C     8.57999992  10.24000072  56.38999939
C     7.27999973  10.54999924  56.09000397
C     6.90999985  11.05999947  54.81999969
C     7.90999985  11.28999901  53.89999771
C     9.26999950  11.07999992  54.25000000
C    13.43999958  10.82999992  55.01999664
C    14.02999973  11.40999985  53.87000275
C    15.40999985  11.57999992  53.76999664
C     5.49000025  11.06999969  54.29000092
H     5.26946115  10.18072891  53.69952774
H    10.07999992  11.72999954  52.23999786
H    11.31999969  10.14999962  56.84999847
H     8.82999992   9.72000027  57.30999756
H     6.57999992  10.24000072  56.86999893
H     7.55999994  11.43000031  52.88000107
H    16.00000000  11.84999943  52.90000153
H     4.75000000  11.18999958  55.08999634
H     5.33999968  12.01000023  53.75000000
S    16.67000008  10.27999973  57.35000229
C    19.34000015  10.90999985  56.65000153
C    18.01000023  10.85000038  56.32999802
C    17.57999992  11.33999920  55.06000137
C    18.47999954  11.78999996  54.10999680
C    19.86999893  11.75000000  54.40000153
C    20.79999924  12.15000057  53.40999985
C    22.13000107  12.05000019  53.74000168
C    22.63999939  11.61999893  55.00000000
C    21.70999908  11.23000050  55.93999863
C    20.30999947  11.39000034  55.72000122
C    16.13000107  11.26000023  54.93000031
C    15.52000046  10.64000034  56.04999924
C    14.17000008  10.34000015  56.11000061
C    24.11000061  11.31000042  55.10000229
H    24.62749863  11.79205322  55.92941284
H    19.76000023  10.34999943  57.48000336
H    18.18000031  12.05999947  53.09999847
H    20.45000076  12.51999950  52.44999695
H    22.86000061  12.38000011  53.01000214
H    21.96000099  10.59999943  56.77999878
H    13.68000031   9.72000027  56.86000061
H    24.59000015  11.50000000  54.13000107
H    24.04000092  10.22999954  55.27999878
