96

S    16.68000031  15.54999924  60.12000275
C    19.31999969  15.90999985  59.31000137
C    18.07999992  15.36000061  59.06000137
C    17.81999969  14.93000031  57.71999741
C    18.78000069  14.85999966  56.72999954
C    20.07999802  15.31000042  57.02999878
C    21.11000061  15.18000031  56.04999924
C    22.36999893  15.65000057  56.33999634
C    22.65000153  16.21999931  57.60000229
C    21.68000031  16.31000137  58.57999802
C    20.35000038  15.85000038  58.33000183
C    16.36999893  14.82999992  57.58999634
C    15.62000084  15.14000034  58.75999832
C    14.23999977  15.22999954  58.85000229
C    24.09000015  16.39999962  58.02000046
H    24.53835297  15.65274239  58.67473984
H    19.55000114  16.34000015  60.27999878
H    18.47999954  14.48999977  55.75000000
H    20.81999969  14.89999962  55.04000092
H    23.12999916  15.48999977  55.58000183
H    22.01000023  16.52000046  59.59000015
H    13.73999977  15.44000053  59.79000092
H    24.77999878  16.48999977  57.18000031
H    24.18999863  17.32999992  58.60000229
S    13.07000065  14.22000027  55.27999878
C    10.31999969  14.19000053  55.87999725
C    11.61000061  14.52999973  56.23000336
C    12.02999973  15.06000042  57.49000168
C    11.02000046  15.19999981  58.43000031
C     9.67000008  14.89999962  58.11999893
C     8.67999935  15.05000019  59.12000275
C     7.37999964  14.65000057  58.88000107
C     7.03000021  14.17000008  57.58999634
C     7.95000029  13.94999981  56.59000015
C     9.30999947  14.27000046  56.86999893
C    13.47000027  15.14999962  57.68000031
C    14.19999981  14.80999947  56.51000214
C    15.57999992  14.63999939  56.45999908
C     5.56999969  14.00000000  57.25000000
H     5.11424685  14.98271751  57.12894058
H    10.14999962  13.73999977  54.91000366
H    11.39999962  15.51000023  59.40000153
H     8.94999981  15.34999943  60.13000107
H     6.67999983  14.73999977  59.69999695
H     7.75000000  13.67000008  55.56000137
H    16.09000015  14.37000084  55.54000092
H     5.13999987  13.35999966  58.02000046
H     5.65000010  13.47000027  56.29000092
S    17.04000092  16.27000046  53.88999939
C    19.70000076  16.40999985  53.06000137
C    18.40999985  16.00000000  52.80000305
C    18.04000092  15.46000004  51.52999878
C    19.03000069  15.27999973  50.58000183
C    20.39999962  15.52999973  50.83000183
C    21.44000053  15.17000008  49.93000031
C    22.75000000  15.39000034  50.26000214
C    23.12000084  15.95000076  51.51000214
C    22.10000038  16.34000015  52.35000229
C    20.72000122  16.11999893  52.11000061
C    16.59000015  15.38000011  51.40999603
C    15.93000031  15.71000004  52.62000275
C    14.53999996  15.67000008  52.70999908
C    24.56000137  16.25000000  51.84000015
H    24.85189247  16.02218246  52.86518097
H    19.97999954  17.13000107  53.82999802
H    18.70000076  14.92000008  49.61000061
H    21.12999916  14.78000069  48.95999908
H    23.54000092  15.08999920  49.56999969
H    22.40999985  16.69999886  53.33000183
H    14.07999992  15.84000015  53.67000198
H    25.17999840  15.62000084  51.18999863
H    24.68000031  17.32999992  51.63999939
S    13.30999947  14.53999996  49.15000153
C    10.59000015  14.47000027  49.89999771
C    11.89000034  14.80999947  50.19000244
C    12.32999992  15.32999992  51.45000076
C    11.32999992  15.52000046  52.37999725
C     9.96999931  15.19000053  52.14000320
C     8.96000004  15.36000061  53.13000107
C     7.63999987  15.01999950  52.91999817
C     7.23999977  14.75999928  51.58000183
C     8.17000008  14.63000107  50.56999969
C     9.55999947  14.73000050  50.84000015
C    13.78000069  15.43000031  51.56000137
C    14.47000027  15.06999969  50.38000107
C    15.85999966  15.01000023  50.27999878
C     5.84999990  14.29999924  51.20999908
H     5.38760900  14.81930065  50.37058258
H    10.22999954  14.07999992  48.95000076
H    11.51000023  15.82999992  53.40999985
H     9.32999992  15.72000027  54.09000015
H     6.84999990  14.96000099  53.66000366
H     7.96999979  14.19999981  49.59000015
H    16.31000137  14.55999947  49.40000153
H     5.21000004  14.52999973  52.06999969
H     5.75999975  13.21000004  51.16000366
