96

S    16.56999969  15.76000023  60.10000229
C    19.25000000  15.70000076  59.54000092
C    17.98999977  15.31999969  59.13999939
C    17.61999893  14.72000027  57.88999939
C    18.64999962  14.61999989  56.97000122
C    19.96999931  15.01999950  57.29000092
C    21.02999878  14.77000046  56.38000107
C    22.34000015  15.06999969  56.68000031
C    22.65999985  15.65000057  57.93000031
C    21.64999962  15.88999939  58.82999802
C    20.29999924  15.51000023  58.60000229
C    16.17000008  14.60999966  57.78999710
C    15.44000053  15.17000008  58.87000275
C    14.06000042  15.22999954  58.95999908
C    24.09000015  15.98999977  58.29000092
H    24.51513290  15.20350361  58.91352844
H    19.43000031  16.10000038  60.52999878
H    18.32999992  14.28999996  55.97999954
H    20.88999939  14.22000027  55.45000076
H    23.13999939  14.70999908  56.03000259
H    21.90000153  16.38000107  59.77000427
H    13.61999989  15.44999981  59.93000031
H    24.59000015  16.18000031  57.34000397
H    24.25000000  16.90999985  58.87000275
S    13.00000000  13.73000050  55.52999878
C    10.26000023  13.64999962  56.11999893
C    11.54000092  13.96999931  56.51000214
C    11.82999992  14.59000015  57.77000046
C    10.78999996  14.96000099  58.60000229
C     9.48999977  14.52999973  58.27999878
C     8.43000031  14.67000008  59.22000122
C     7.13000011  14.34000015  58.89999771
C     6.85999966  13.71999931  57.65999603
C     7.86999989  13.43000031  56.77000046
C     9.19999981  13.86999989  57.04000092
C    13.27000046  14.75999928  57.90000153
C    14.06000042  14.40999985  56.77999878
C    15.44999981  14.34999943  56.62000275
C     5.47999954  13.25000000  57.27000427
H     4.97146177  13.85742092  56.52132034
H    10.11999989  13.21000004  55.13999939
H    10.98000050  15.46000004  59.55999756
H     8.64000034  15.15999985  60.17000198
H     6.34000015  14.52999973  59.62999725
H     7.57999992  12.94999981  55.84000015
H    15.80999947  14.19999981  55.61000061
H     4.94000006  13.17999935  58.22000122
H     5.65999985  12.18999958  57.06999969
S    17.10000038  16.22999954  54.31000137
C    19.84000015  16.21000099  53.68000031
C    18.54999924  15.85999966  53.36000061
C    18.19000053  15.26000023  52.11000061
C    19.27000046  15.03999901  51.26999664
C    20.59999847  15.44999981  51.53999710
C    21.68999863  15.08999920  50.68999863
C    22.98999977  15.39999962  51.00000000
C    23.32999992  16.07999992  52.19999695
C    22.30999947  16.28999901  53.09999847
C    20.95000076  16.03000069  52.81000137
C    16.75000000  15.13000011  51.95999908
C    16.00000000  15.67000008  53.02999878
C    14.60999966  15.78999996  53.00000000
C    24.77999878  16.40999985  52.45999908
H    25.29097939  15.62223816  53.01356125
H    20.00999832  16.67000008  54.65999985
H    19.00000000  14.51000023  50.37000275
H    21.52000046  14.65999985  49.71000290
H    23.75000000  15.31000042  50.21999741
H    22.63999939  16.64999962  54.08000183
H    14.04999924  16.05999947  53.88999939
H    25.25000000  16.60000038  51.49000168
H    24.84999847  17.32999992  53.06000137
S    13.64999962  14.42000008  49.36999893
C    10.90999985  14.27999973  50.06999969
C    12.18999958  14.68000031  50.34999847
C    12.53000069  15.31000042  51.59000015
C    11.54000092  15.55999947  52.52999878
C    10.19999981  15.21999931  52.25000000
C     9.11000061  15.40999985  53.15000153
C     7.81000042  15.06999969  52.88999939
C     7.55999994  14.28999996  51.72999954
C     8.56999969  14.04000092  50.83000183
C     9.89999962  14.48999977  51.04999924
C    13.96000004  15.40999985  51.81999969
C    14.70000076  14.96999931  50.70000076
C    16.05999947  14.70999908  50.81999969
C     6.24000025  13.64999962  51.37000275
H     5.51817417  14.37182617  50.98785782
H    10.75000000  13.86999989  49.08000183
H    11.95000076  15.80999947  53.50000000
H     9.32999992  15.78999996  54.15000153
H     7.00999975  15.34999943  53.57999802
H     8.23000050  13.43999958  50.00000000
H    16.57999992  14.29999924  49.95999908
H     5.88000011  13.27000046  52.32999802
H     6.37000036  12.75000000  50.76000214
