96

S    16.48999977  15.85000038  60.14999771
C    19.23999977  15.93999958  59.36000061
C    17.90999985  15.69000053  59.09999847
C    17.53999901  15.17000008  57.81999969
C    18.53999901  14.80999947  56.93000031
C    19.88000107  15.22999954  57.12999725
C    21.00000000  14.86999989  56.33999634
C    22.30999947  14.98000050  56.72999954
C    22.62000084  15.65999985  57.94000244
C    21.61999893  15.93999958  58.83999634
C    20.27000046  15.77000046  58.40999985
C    16.10999870  14.94999981  57.70000076
C    15.39000034  15.32999992  58.86000061
C    14.01000023  15.29999924  58.95999908
C    24.04000092  16.03000069  58.29999924
H    24.50275612  15.31806946  58.98345566
H    19.52999878  16.18999863  60.38000107
H    18.36000061  14.14000034  56.10000229
H    20.73999786  14.37000084  55.40000153
H    23.08000183  14.77000046  55.98999786
H    21.87000084  16.28999901  59.84000397
H    13.43000031  15.55999947  59.84000397
H    24.63000107  16.01000023  57.37999725
H    23.95999908  17.06999969  58.66000366
S    13.00000000  13.94999981  55.27999878
C    10.26000023  14.01000023  55.84999847
C    11.54999924  14.19999981  56.26999664
C    11.92999935  14.60000038  57.60000229
C    10.88999939  14.88000011  58.46000290
C     9.52999973  14.68999958  58.09999847
C     8.45000076  14.88000011  59.00000000
C     7.18999958  14.47999954  58.61000061
C     6.86999989  14.09000015  57.29000092
C     7.88999987  13.83999920  56.39999771
C     9.19999981  14.22999954  56.77999878
C    13.35000038  14.80999947  57.81999969
C    14.02999973  14.46000004  56.63000107
C    15.42000008  14.44000053  56.59000015
C     5.46999979  13.67000008  56.88000107
H     5.00634289  14.31198597  56.13101578
H    10.01999950  13.55999947  54.88999939
H    11.16000080  15.01999950  59.51000214
H     8.69000053  15.22999954  59.99000168
H     6.42000008  14.56999969  59.36999893
H     7.78999996  13.53000069  55.35999680
H    15.97000027  14.19000053  55.68999863
H     4.86999989  13.68000031  57.80000305
H     5.51000023  12.63000011  56.53999710
S    17.31999969  16.03999901  54.15999985
C    20.00999832  16.46000099  53.52000427
C    18.78000069  15.92000008  53.16999817
C    18.52000046  15.32999992  51.90000153
C    19.62000084  15.22999954  51.06999969
C    20.92000008  15.72999954  51.31999969
C    22.07999992  15.42000008  50.54999924
C    23.36000061  15.64000034  50.98999786
C    23.51000023  16.29999924  52.23999786
C    22.40999985  16.69999886  52.97000122
C    21.09000015  16.31000137  52.62000275
C    17.09000015  15.15999985  51.66999817
C    16.31000137  15.47000027  52.81999969
C    14.93000031  15.54999924  52.84999847
C    24.89000130  16.75000000  52.64999771
H    25.24538994  16.03211212  53.38920975
H    20.15000153  16.87999916  54.51000214
H    19.36000061  14.77000046  50.12000275
H    21.87999916  14.78999996  49.68000031
H    24.18000031  15.21000004  50.44000244
H    22.50000000  17.28999901  53.88000107
H    14.48999977  15.85000038  53.80000305
H    25.66999817  16.79000092  51.86999893
H    24.79999924  17.70000076  53.20000076
S    13.83999920  14.75000000  49.15999985
C    11.11999989  14.55999947  49.75000000
C    12.38999939  14.80999947  50.19000244
C    12.76000023  15.19999981  51.52000046
C    11.72000027  15.39000034  52.41000366
C    10.39999962  15.03000069  52.04999924
C     9.36999989  15.10000038  53.02999878
C     8.05000019  14.85999966  52.72999573
C     7.73000002  14.35999966  51.45000076
C     8.71999931  14.28999996  50.48999786
C    10.06999969  14.68999958  50.68999863
C    14.19999981  15.26999950  51.68000031
C    14.96000099  14.96999931  50.52000046
C    16.35000038  14.98000050  50.50000000
C     6.28999996  14.01000023  51.14999771
H     5.84255934  14.64209843  50.38295746
H    11.10999966  14.04999924  48.77999878
H    11.90999985  15.64000034  53.46000290
H     9.67000008  15.67999935  53.89999771
H     7.26999998  15.14000034  53.43999863
H     8.46000004  13.86000061  49.52000046
H    16.84000015  14.86999989  49.54000092
H     5.73999977  14.07999992  52.09000015
H     6.17999983  12.97999954  50.80999756
