96

S    16.80999947  15.47000027  60.56999969
C    19.52000046  15.71000004  59.84000397
C    18.22000122  15.44000053  59.48999786
C    17.85000038  15.03999901  58.16999817
C    18.85000038  15.03999901  57.21000290
C    20.20000076  15.32999992  57.48000336
C    21.21000099  15.26999950  56.46999741
C    22.50000000  15.65999985  56.76000214
C    22.80999947  16.02000046  58.09000015
C    21.87999916  16.02000046  59.09999847
C    20.52999878  15.67000008  58.83999634
C    16.40999985  14.93000031  58.00000000
C    15.71000004  15.21999931  59.20000076
C    14.32999992  15.32999992  59.27999878
C    24.25000000  16.36999893  58.41999817
H    24.71124268  15.61072254  59.05154800
H    19.73999977  16.07999992  60.84000015
H    18.51000023  14.63000107  56.25999832
H    20.88000107  15.03999901  55.47000122
H    23.29000092  15.73999977  56.02000427
H    22.13000107  16.44000053  60.06999969
H    13.78000069  15.57000065  60.18000031
H    24.86999893  16.36000061  57.50999832
H    24.34000015  17.34000015  58.90999603
S    13.21000004  14.34000015  55.59999847
C    10.46000004  14.45000076  56.25999832
C    11.77999973  14.65999985  56.59000015
C    12.13999939  15.06000042  57.91999817
C    11.14999962  15.19999981  58.88000107
C     9.81000042  14.85000038  58.57999802
C     8.71999931  15.19999981  59.41999817
C     7.40000010  15.01999950  59.09000015
C     7.09000015  14.40000057  57.84999847
C     8.06999969  14.28999996  56.90000153
C     9.43000031  14.55000019  57.22000122
C    13.56999969  15.21999931  58.09999847
C    14.27000046  14.82999992  56.93000031
C    15.65000057  14.65000057  56.84999847
C     5.63000011  14.22000027  57.49000168
H     5.20978069  14.83252335  56.69229889
H    10.26999950  13.94999981  55.31000137
H    11.40999985  15.65000057  59.84000397
H     8.92000008  15.65999985  60.38000107
H     6.67999983  15.39000034  59.80999756
H     7.88000011  13.96999931  55.86999893
H    16.11999893  14.52000046  55.87999725
H     5.09999990  14.48999977  58.40000153
H     5.46000004  13.15000057  57.27000427
S    17.01000023  16.11999893  54.00000000
C    19.71999931  16.25000000  53.33000183
C    18.44000053  15.90999985  52.97000122
C    18.06999969  15.60999966  51.62000275
C    19.09000015  15.40999985  50.70999908
C    20.40999985  15.80999947  51.05999756
C    21.45000076  15.72000027  50.10000229
C    22.70000076  16.22999954  50.37000275
C    23.05000114  16.59000015  51.70000076
C    22.13000107  16.52000046  52.71999741
C    20.78000069  16.23999977  52.37999725
C    16.61999893  15.59000015  51.51000214
C    15.86999989  16.02000046  52.63999939
C    14.48999977  16.04999924  52.77999878
C    24.50000000  16.93000031  51.95999908
H    24.81856537  16.42737198  52.87322617
H    19.92000008  16.69000053  54.31000137
H    18.92000008  15.01999950  49.71000290
H    21.31000137  15.31999969  49.09999847
H    23.46999931  16.18000031  49.59999847
H    22.36000061  16.79000092  53.75000000
H    13.94999981  16.34000015  53.68999863
H    25.06000137  16.60000038  51.07999802
H    24.59000015  18.01000023  52.09000015
S    13.40000057  14.92000008  49.10999680
C    10.72999954  14.55000019  49.86000061
C    12.02000046  14.88999939  50.21999741
C    12.36999989  15.31000042  51.53999710
C    11.38000011  15.48999977  52.50000000
C    10.05000019  15.17000008  52.15000153
C     8.98999977  15.22999954  53.09000015
C     7.67000008  14.93999958  52.80000305
C     7.42000008  14.42999935  51.50000000
C     8.42000008  14.17000008  50.59000015
C     9.76000023  14.52999973  50.90000153
C    13.80000019  15.54999924  51.66999817
C    14.47999954  15.18000031  50.48999786
C    15.86999989  15.19000053  50.40000153
C     6.01000023  14.01999950  51.12999725
H     5.46149540  14.68247890  50.46039963
H    10.55999947  14.17000008  48.86000061
H    11.52999973  15.93000031  53.47999954
H     9.15000057  15.70000076  54.06000137
H     6.84000015  14.96999931  53.50000000
H     8.18000031  13.66000080  49.65000153
H    16.31000137  14.81999969  49.47999954
H     5.27999973  14.06000042  51.95000076
H     6.11000013  12.97000027  50.81999969
