96

S    16.92000008  15.43000031  60.34000015
C    19.63000107  15.62999916  59.73999786
C    18.36000061  15.31999969  59.31999969
C    18.00000000  15.00000000  57.97000122
C    19.00000000  14.84000015  57.02999878
C    20.32999992  15.08999920  57.43999863
C    21.40999985  15.03999901  56.51000214
C    22.67999840  15.44000053  56.81999969
C    22.95999908  15.90999985  58.13000107
C    21.97000122  15.95000076  59.09000015
C    20.63999939  15.59000015  58.75000000
C    16.56999969  14.96999931  57.70999908
C    15.86999989  15.26000023  58.90999603
C    14.48999977  15.36999893  58.87000275
C    24.37999916  16.31999969  58.44999695
H    24.91557312  15.64160728  59.11410904
H    19.85000038  15.97000027  60.75000000
H    18.73999977  14.57999992  56.00000000
H    21.25999832  14.51000023  55.56999969
H    23.45999908  15.22999954  56.10000229
H    22.11000061  16.34000015  60.10000229
H    13.96000004  15.62000084  59.79000092
H    24.97999954  16.44000053  57.54000092
H    24.23000145  17.32999992  58.87000275
S    13.40999985  14.11000061  55.24000168
C    10.67000008  13.96000004  55.77999878
C    11.94000053  14.32000065  56.19999695
C    12.34000015  14.68000031  57.51999664
C    11.31999969  14.75000000  58.44999695
C    10.00000000  14.37999916  58.11999893
C     8.90999985  14.37999916  59.03999710
C     7.64999962  13.92000008  58.74000168
C     7.40999985  13.48999977  57.41000366
C     8.38999939  13.42000008  56.45000076
C     9.67000008  13.93000031  56.79000092
C    13.76000023  14.85999966  57.78999710
C    14.47000027  14.55000019  56.59999847
C    15.85999966  14.55999947  56.58000183
C     5.98999977  13.02999973  57.15000153
H     5.50802088  13.73879242  56.47664642
H    10.53999996  13.53999996  54.79000092
H    11.51000023  15.03999901  59.47999954
H     9.02999973  14.85000038  60.00999832
H     6.84000015  13.89999962  59.45999908
H     8.15999985  13.15999985  55.41999817
H    16.40999985  14.09000015  55.77000046
H     5.38000011  12.89000034  58.06000137
H     6.05999994  12.03999996  56.70000076
S    13.50000000  12.18999958  52.27000427
C    10.86999989  11.47999954  52.95999908
C    12.20999908  11.51000023  53.27999878
C    12.71000004  10.75000000  54.38999939
C    11.72999954  10.22999954  55.21999741
C    10.34000015  10.34999943  55.00000000
C     9.44000053   9.73999977  55.90999985
C     8.09000015   9.80000019  55.63999939
C     7.59999990  10.59000015  54.56999969
C     8.43999958  11.13000011  53.61999893
C     9.85000038  11.00000000  53.81000137
C    14.14999962  10.85999966  54.52000046
C    14.68999958  11.64999962  53.47999954
C    16.01000023  12.07999992  53.48999786
C     6.11999989  10.72999954  54.31000137
H     5.89230347  10.08248806  53.46325302
H    10.57999992  12.07999992  52.09999847
H    11.96000004   9.63999939  56.10000229
H     9.72999954   9.17000008  56.79000092
H     7.30000019   9.34000015  56.23000336
H     7.99000025  11.61999893  52.76000214
H    16.39999962  12.76999950  52.74000168
H     5.52999973  10.54999924  55.21999741
H     5.98999977  11.79999924  54.06999969
S    17.43000031  10.72999954  56.95000076
C    20.10000038  11.10000038  56.23000336
C    18.77000046  11.31000042  55.93999863
C    18.27999878  11.73999977  54.66999817
C    19.26000023  12.22000027  53.81999969
C    20.63999939  12.18000031  54.15999985
C    21.64999962  12.84999943  53.40999985
C    23.00000000  12.74000072  53.66000366
C    23.44000053  12.02999973  54.79999924
C    22.52000046  11.43000031  55.61999893
C    21.11999893  11.51999950  55.34999847
C    16.82999992  11.63000011  54.52999878
C    16.26000023  10.95000076  55.63999939
C    14.92000008  10.59999943  55.66999817
C    24.93000031  11.85999966  55.05000305
H    25.10100555  11.89562607  56.12591553
H    20.43999863  10.60999966  57.14000320
H    19.04999924  12.65999985  52.84999847
H    21.42000008  13.48999977  52.56999969
H    23.67000198  13.21000004  52.95000076
H    22.72999954  10.86999989  56.52999878
H    14.52999973  10.08999920  56.53999710
H    25.58000183  12.58999920  54.55999756
H    25.26000023  10.88000107  54.68000031
