96

S    17.13999939  15.88999939  60.18000031
C    19.78000069  15.69000053  59.56999969
C    18.50000000  15.38000011  59.18000031
C    18.12000084  14.88000011  57.88999939
C    19.17000008  14.52999973  57.05999756
C    20.50000000  14.85000038  57.42000198
C    21.54999924  14.73999977  56.46999741
C    22.86999893  14.94999981  56.79000092
C    23.21000099  15.44999981  58.08000183
C    22.21999931  15.70000076  59.00000000
C    20.86000061  15.39999962  58.69999695
C    16.67000008  14.84000015  57.76000214
C    16.02000046  15.31999969  58.93000031
C    14.63999939  15.36999893  59.03999710
C    24.60000038  15.93999958  58.40000153
H    25.09878922  15.36995506  59.18381119
H    20.15000153  16.18999863  60.47000122
H    19.11999893  14.19999981  56.02000427
H    21.35999870  14.42999935  55.45000076
H    23.59999847  14.93000031  55.98999786
H    22.46999931  16.27000046  59.88999939
H    14.19999981  15.62000084  60.00000000
H    25.22999954  16.03000069  57.50000000
H    24.47999954  16.95999908  58.79000092
S    13.50000000  13.89999962  55.45999908
C    10.84000015  13.78000069  56.18000031
C    12.10000038  14.21000004  56.52000046
C    12.43999958  14.75000000  57.80000305
C    11.39999962  14.94999981  58.69999695
C    10.07999992  14.59000015  58.34000015
C     9.02999973  14.80000019  59.27000046
C     7.75000000  14.37999916  59.01000214
C     7.46000004  13.64999962  57.81999969
C     8.43000031  13.50000000  56.86000061
C     9.76000023  13.94000053  57.09000015
C    13.86000061  15.03000069  57.91999817
C    14.51000023  14.59000015  56.75000000
C    15.90000057  14.47000027  56.65999985
C     6.00000000  13.32999992  57.57999802
H     5.68754816  13.93360043  56.72785950
H    10.70000076  13.26000023  55.24000168
H    11.54999924  15.27999973  59.72000122
H     9.36999989  15.14000034  60.25000000
H     6.91999960  14.57999992  59.68000031
H     8.21000004  13.10999966  55.86999893
H    16.39000130  14.19999981  55.72999954
H     5.36000013  13.45000076  58.46000290
H     5.89999962  12.25999928  57.32999802
S    17.19000053  15.93999958  54.02000046
C    19.92000008  15.80000019  53.54000092
C    18.63999939  15.52999973  53.09000015
C    18.30999947  14.98999977  51.79999924
C    19.36000061  14.59000015  51.00000000
C    20.65999985  15.06000042  51.31000137
C    21.68999863  15.07999992  50.33000183
C    22.95999908  15.54999924  50.58000183
C    23.22999954  16.11999893  51.86000061
C    22.22999954  16.25000000  52.80000305
C    20.95000076  15.67000008  52.57999802
C    16.88999939  15.05000019  51.50000000
C    16.17000008  15.55999947  52.62000275
C    14.80000019  15.72999954  52.75000000
C    24.60000038  16.68000031  52.15999985
H    25.17818451  16.04471207  52.83097839
H    20.06999969  16.35000038  54.45999908
H    19.19000053  14.09000015  50.04000092
H    21.38000107  14.72000027  49.34999847
H    23.75000000  15.52000046  49.85000229
H    22.32999992  16.69999886  53.79000092
H    14.34999943  16.07999992  53.68000031
H    25.17000008  16.57999992  51.23000336
H    24.56999969  17.71000099  52.54000092
S    13.53999996  14.09000015  49.36000061
C    10.88000107  13.92000008  50.17000198
C    12.15999985  14.37999916  50.43000031
C    12.61000061  15.05000019  51.60999680
C    11.61999893  15.29000092  52.55000305
C    10.26999950  14.91000080  52.35000229
C     9.19000053  15.06999969  53.27000046
C     7.88999987  14.72000027  52.98999786
C     7.50000000  14.17000008  51.73999786
C     8.52999973  13.90999985  50.86999893
C     9.89000034  14.26000023  51.12999725
C    14.04000092  15.31999969  51.65000153
C    14.68999958  14.75999928  50.52999878
C    16.06999969  14.65000057  50.44000244
C     6.09000015  13.73000050  51.42000198
H     5.61939287  14.12930298  50.52156830
H    10.59999943  13.27999973  49.34000015
H    11.77999973  15.73999977  53.53000259
H     9.39000034  15.55999947  54.22000122
H     7.09000015  14.77000046  53.72000122
H     8.36999989  13.36999989  49.93000031
H    16.56999969  14.27999973  49.54000092
H     5.49000025  14.01999950  52.28000259
H     6.11000013  12.64000034  51.45999908
