96

S    16.54000092  15.69000053  60.27999878
C    19.25000000  15.88000107  59.50000000
C    17.94999886  15.57000065  59.20999908
C    17.60000038  14.96000099  57.95999908
C    18.54999924  14.70999908  56.97999954
C    19.89999962  15.03000069  57.25999832
C    20.92000008  14.88000011  56.26999664
C    22.21999931  15.21999931  56.55000305
C    22.57999802  15.71000004  57.83000183
C    21.61000061  15.93999958  58.77999878
C    20.25000000  15.57000065  58.54000092
C    16.15999985  14.88000011  57.80000305
C    15.43000031  15.34000015  58.93000031
C    14.04999924  15.36999893  59.02999878
C    24.00000000  16.10999870  58.18000031
H    24.41949463  15.47720242  58.96210861
H    19.47999954  16.43000031  60.41999817
H    18.37000084  14.21000004  56.03000259
H    20.61000061  14.60999966  55.27000046
H    23.05000114  15.05000019  55.86999893
H    21.87999916  16.39000130  59.72999954
H    13.59000015  15.60999966  59.98000336
H    24.54999924  16.13999939  57.22999954
H    24.11999893  17.15999985  58.47000122
S    12.86999893  14.13000011  55.47999954
C    10.25000000  14.32999992  56.02000427
C    11.50000000  14.68000031  56.46999741
C    11.82000065  15.19999981  57.77000046
C    10.77000046  15.46000004  58.61999893
C     9.48000050  15.01999950  58.26000214
C     8.34999943  15.11999989  59.12000275
C     7.07999992  14.70999908  58.79000092
C     6.83000040  14.19999981  57.49000168
C     7.90000010  13.96000004  56.66999817
C     9.19999981  14.47000027  56.95999908
C    13.27000046  15.14999962  57.88000107
C    13.99000072  14.73000050  56.72999954
C    15.36000061  14.52999973  56.70999908
C     5.40000010  13.78000069  57.22999954
H     4.96502542  14.27202129  56.36005020
H    10.10000038  13.66000080  55.17000198
H    11.03000069  15.76000023  59.64000320
H     8.38000011  15.44000053  60.15999603
H     6.35999966  14.73000050  59.61000061
H     7.77999973  13.47000027  55.70000076
H    15.85999966  14.11000061  55.84000015
H     4.78999996  13.90999985  58.13999939
H     5.46000004  12.71999931  56.93000031
S    16.84000015  15.84000015  53.79000092
C    19.50000000  16.06999969  52.94000244
C    18.20999908  15.65999985  52.68000031
C    17.81999969  15.14999962  51.38999939
C    18.86000061  15.06000042  50.48999786
C    20.20999908  15.36999893  50.75000000
C    21.27000046  15.29999924  49.79000092
C    22.57999802  15.57000065  50.12000275
C    22.85000038  16.28999901  51.31000137
C    21.86000061  16.50000000  52.23999786
C    20.55000114  15.98999977  52.00000000
C    16.38000107  15.26999950  51.24000168
C    15.71000004  15.65000057  52.43999863
C    14.32999992  15.77000046  52.52999878
C    24.25000000  16.79999924  51.56999969
H    24.74080276  16.23095131  52.35955429
H    19.62000084  16.63999939  53.86000061
H    18.63999939  14.75000000  49.45999908
H    21.04000092  14.84000015  48.82999802
H    23.34000015  15.19000053  49.43999863
H    21.97999954  17.02999878  53.18000031
H    13.81999969  16.23999977  53.36999893
H    24.82000160  16.76000023  50.63000107
H    24.11000061  17.84000015  51.88000107
S    13.07000065  14.55999947  49.00000000
C    10.36000061  14.45000076  49.79000092
C    11.67000008  14.80000019  50.05000305
C    12.10000038  15.25000000  51.33999634
C    11.13999939  15.48999977  52.29999924
C     9.77999973  15.15999985  52.09999847
C     8.76999950  15.53999996  53.02999878
C     7.46000004  15.21999931  52.77000046
C     7.09999990  14.52000046  51.59000015
C     8.05999947  14.19999981  50.65000153
C     9.42000008  14.52999973  50.84999847
C    13.53999996  15.42000008  51.43000031
C    14.22999954  15.01999950  50.26000214
C    15.60999966  14.89999962  50.13000107
C     5.63000011  14.29999924  51.27999878
H     5.18171215  14.91194820  50.49727631
H    10.06000042  13.89999962  48.89999771
H    11.38000011  15.93999958  53.26000214
H     9.00000000  16.18999863  53.87000275
H     6.71000004  15.76000023  53.34000015
H     7.68000031  13.66000080  49.79000092
H    16.03999901  14.45000076  49.23999786
H     4.99000025  14.34000015  52.15999985
H     5.51000023  13.23999977  51.00999832
