96

S    16.50000000  15.52000046  60.27999878
C    19.20999908  15.54999924  59.59999847
C    17.92000008  15.17000008  59.27999878
C    17.57999992  14.55999947  58.02999878
C    18.57999992  14.48999977  57.08000183
C    19.93000031  14.77000046  57.37999725
C    21.01000023  14.65000057  56.45999908
C    22.32000160  15.00000000  56.69000244
C    22.60000038  15.53999996  57.97999954
C    21.60000038  15.72000027  58.90999603
C    20.26000023  15.32999992  58.67000198
C    16.13999939  14.39000034  57.88999939
C    15.43000031  14.96000099  58.97999573
C    14.06999969  15.22999954  58.94000244
C    23.97000122  16.05999947  58.30999756
H    24.47504044  15.36290169  58.97864532
H    19.40999985  16.11999893  60.51000214
H    18.34000015  14.17000008  56.06999969
H    20.75000000  14.40000057  55.43000031
H    23.06999969  14.86999989  55.91999817
H    21.73999977  16.28000069  59.82999802
H    13.63000011  15.62000084  59.85000229
H    24.50000000  16.35000038  57.38999939
H    23.77000046  17.02999878  58.79000092
S    13.02000046  13.96000004  55.27000046
C    10.32999992  14.04000092  55.93000031
C    11.61000061  14.42999935  56.23000336
C    11.92000008  14.92000008  57.54000092
C    10.90000057  15.18000031  58.43999863
C     9.59000015  14.73999977  58.15000153
C     8.57999992  14.73999977  59.15000153
C     7.28999996  14.29999924  58.93000031
C     6.97000027  13.75000000  57.65999603
C     7.94000053  13.68000031  56.69000244
C     9.28999996  14.09000015  56.90000153
C    13.35000038  14.86999989  57.78999710
C    14.02999973  14.27999973  56.69000244
C    15.39999962  14.04999924  56.75000000
C     5.63000011  13.15000057  57.29999924
H     5.09013891  13.86744690  56.68200302
H    10.11000061  13.60000038  54.95999908
H    11.19999981  15.44000053  59.45000076
H     8.78000069  15.26999950  60.07999802
H     6.48999977  14.47000027  59.64000320
H     7.55000019  13.27999973  55.76000214
H    15.95000076  13.64999962  55.90000153
H     4.96000004  12.94999981  58.13999939
H     5.77000046  12.22000027  56.72999954
S    16.87999916  16.02000046  54.20000076
C    19.59000015  16.02000046  53.36999893
C    18.27999878  15.67000008  53.16999817
C    17.88999939  15.19999981  51.86999893
C    18.81000137  15.00000000  50.86000061
C    20.13999939  15.44999981  51.00999832
C    21.18000031  15.21999931  50.06999969
C    22.44999886  15.67000008  50.34999847
C    22.80999947  16.32999992  51.56000137
C    21.78999901  16.59000015  52.44999695
C    20.48000145  16.07999992  52.27000427
C    16.43000031  15.14000034  51.81000137
C    15.71000004  15.64000034  52.91999817
C    14.32999992  15.73999977  52.85999680
C    24.26000214  16.61999893  51.86000061
H    24.68713379  15.99353886  52.64307404
H    19.90999985  16.36999893  54.34999847
H    18.51000023  14.42999935  49.98000336
H    20.95999908  14.72000027  49.13000107
H    23.22000122  15.26999950  49.69999695
H    22.09000015  16.90000153  53.44999695
H    13.80000019  16.04999924  53.75000000
H    24.82000160  16.60000038  50.90999985
H    24.34999847  17.67000008  52.16999817
S    13.30999947  14.68000031  49.18000031
C    10.55999947  14.55000019  49.81999969
C    11.84999943  14.88000011  50.17000198
C    12.22000027  15.40999985  51.44000244
C    11.21000099  15.57000065  52.37999725
C     9.86999989  15.26000023  52.05999756
C     8.89999962  15.24000072  53.09999847
C     7.59999990  14.91000080  52.80000305
C     7.21000004  14.59000015  51.46999741
C     8.15999985  14.42000008  50.48999786
C     9.52000046  14.75999928  50.75000000
C    13.66000080  15.47999954  51.65999985
C    14.37999916  14.93999958  50.56999969
C    15.76000023  14.73999977  50.65000153
C     5.78000021  14.17000008  51.24000168
H     5.21864033  14.70293713  50.47256851
H    10.32999992  14.04999924  48.88000107
H    11.54000092  15.77999973  53.40000153
H     9.19000053  15.59999943  54.08000183
H     6.88000011  14.78999996  53.60000229
H     7.88000011  14.09000015  49.48999786
H    16.31999969  14.27000046  49.85000229
H     5.26999998  14.27000046  52.19999695
H     5.78999996  13.09000015  51.03000259
