96

S    16.60000038  15.82999992  60.17000198
C    19.27999878  15.81999969  59.43000031
C    17.97999954  15.46000004  59.12000275
C    17.61000061  14.84000015  57.88999939
C    18.51000023  14.67000008  56.86000061
C    19.84000015  15.07999992  57.11999893
C    20.88999939  14.84000015  56.18000031
C    22.20000076  15.10000038  56.50000000
C    22.53000069  15.80999947  57.69000244
C    21.56999969  16.01000023  58.64999771
C    20.22000122  15.65000057  58.37999725
C    16.15999985  14.75000000  57.78999710
C    15.47999954  15.26000023  58.93000031
C    14.09000015  15.38000011  58.95999908
C    23.95999908  16.23999977  57.94000244
H    24.41461945  15.62200069  58.71427536
H    19.54000092  16.31000137  60.35999680
H    18.22000122  14.11999893  55.97000122
H    20.65000153  14.37999916  55.21999741
H    22.98000145  14.65999985  55.87999725
H    21.84999847  16.47999954  59.59000015
H    13.63000011  15.85000038  59.81999969
H    24.63000107  16.35000038  57.08000183
H    23.95000076  17.28000069  58.29999924
S    12.97000027  13.83999920  55.48999786
C    10.31000042  13.73999977  56.25000000
C    11.54999924  14.27999973  56.46999741
C    11.85999966  14.93999958  57.70000076
C    10.82999992  15.05000019  58.61999893
C     9.52000046  14.56999969  58.41999817
C     8.45000076  14.60999966  59.36000061
C     7.20000029  14.06000042  59.16999817
C     6.90000010  13.43999958  57.91999817
C     7.90000010  13.48000050  56.97999954
C     9.23999977  13.94000053  57.15999985
C    13.30999947  14.96999931  57.87000275
C    14.02999973  14.40999985  56.79000092
C    15.40999985  14.29999924  56.69000244
C     5.55000019  12.89000034  57.55000305
H     5.02199888  13.56070423  56.87216187
H    10.17000008  13.05999947  55.41999817
H    11.13999939  15.31000042  59.62999725
H     8.73999977  14.98000050  60.34000015
H     6.38000011  14.11000061  59.87999725
H     7.79999971  13.01000023  56.00000000
H    15.90000057  14.00000000  55.77000046
H     4.92000008  12.77999973  58.43999863
H     5.65999985  11.92999935  57.02999878
S    13.35999966  11.92999935  52.32999802
C    10.64000034  11.43000031  52.90000153
C    11.97000027  11.32999992  53.25000000
C    12.36999989  10.73999977  54.48999786
C    11.39999962  10.19999981  55.31999969
C    10.01999950  10.21999931  54.98000336
C     8.94999981   9.61000061  55.68999863
C     7.63000011   9.92000008  55.45000076
C     7.27999973  10.69000053  54.31000137
C     8.27999973  11.09000015  53.44999695
C     9.64999962  10.90000057  53.77999878
C    13.80000019  10.90000057  54.73999786
C    14.47000027  11.52999973  53.66000366
C    15.84000015  11.72999954  53.63999939
C     5.84000015  11.07999992  54.03999710
H     5.48348522  10.63079166  53.11306381
H    10.40999985  12.05999947  52.04999924
H    11.59999943   9.52999973  56.14999771
H     9.26999950   9.03999996  56.55000305
H     6.85999966   9.51000023  56.10000229
H     8.11999989  11.63000011  52.51999664
H    16.31000137  12.30000019  52.84000015
H     5.23999977  10.65000057  54.85000229
H     5.78999996  12.18000031  54.05000305
S    17.04000092  10.31999969  57.19999695
C    19.75000000  10.80999947  56.53999710
C    18.42000008  10.90000057  56.23000336
C    18.01000023  11.44000053  54.97000122
C    18.96999931  12.05000019  54.18000031
C    20.36000061  11.95000076  54.45000076
C    21.35999870  12.51000023  53.60000229
C    22.69000053  12.38999939  53.93000031
C    23.05000114  11.73999977  55.13999939
C    22.13000107  11.23999977  56.04000092
C    20.76000023  11.31000042  55.68000031
C    16.57999992  11.32999992  54.75999832
C    15.93999958  10.69000053  55.84999847
C    14.57999992  10.44999981  55.81999969
C    24.51999855  11.54000092  55.45000076
H    24.90230560  11.95062351  56.38452148
H    20.06999969  10.39999962  57.50000000
H    18.68000031  12.53999901  53.26000214
H    21.09000015  13.12000084  52.75000000
H    23.45999908  12.94000053  53.40999985
H    22.42000198  10.76000023  56.97000122
H    14.06999969  10.06000042  56.69000244
H    25.19000053  11.92000008  54.68000031
H    24.65999985  10.46000004  55.37000275
