96

S    16.43000031  15.57999992  60.31000137
C    19.13999939  15.46000004  59.65999985
C    17.84000015  15.24000072  59.29000092
C    17.43000031  14.68000031  58.02999878
C    18.39999962  14.47999954  57.06999969
C    19.75000000  14.78999996  57.38999939
C    20.72000122  14.75000000  56.35000229
C    22.04000092  14.98999977  56.63999939
C    22.43999863  15.51000023  57.90000153
C    21.51000023  15.62000084  58.92000198
C    20.15000153  15.26999950  58.68000031
C    15.98999977  14.63999939  57.85999680
C    15.31000042  15.15999985  58.99000168
C    13.94000053  15.34999943  58.96999741
C    23.81999969  16.09000015  58.13000107
H    24.34732437  15.45578575  58.84260178
H    19.29000092  15.78999996  60.68000031
H    18.22999954  14.17000008  56.04000092
H    20.32999992  14.42999935  55.38999939
H    22.70000076  14.78999996  55.79999924
H    21.80999947  16.03000069  59.87999725
H    13.55999947  15.90999985  59.82999802
H    24.34999847  16.10000038  57.16999817
H    23.75999832  17.13000107  58.44999695
S    12.71999931  13.67000008  55.58000183
C    10.01000023  13.63999939  56.36000061
C    11.31000042  14.00000000  56.62000275
C    11.72000027  14.55999947  57.87000275
C    10.73999977  14.98000050  58.75000000
C     9.38000011  14.75000000  58.43000031
C     8.43000031  15.03999901  59.43999863
C     7.09000015  14.80000019  59.22000122
C     6.71999979  14.04999924  58.06999969
C     7.63000011  13.55999947  57.16999817
C     9.00000000  13.93000031  57.30999756
C    13.15999985  14.68999958  58.01000214
C    13.82999992  14.19000053  56.86000061
C    15.21999931  14.13000011  56.81000137
C     5.27999973  13.60000038  57.91999817
H     4.77672338  14.03239250  57.05521393
H     9.89000034  12.94999981  55.52000046
H    11.02000046  15.42000008  59.69999695
H     8.88000011  15.39999962  60.37000275
H     6.46000004  15.18000031  60.00999832
H     7.36000013  13.02999973  56.26999664
H    15.75000000  13.75000000  55.93999863
H     4.69999981  13.68000031  58.83999634
H     5.33999968  12.51000023  57.84000015
S    13.23999977  11.69000053  52.57999802
C    10.65000057  11.07999992  53.22000122
C    11.97999954  10.90999985  53.54999924
C    12.43999958  10.42000008  54.80999756
C    11.44000053   9.94000053  55.65000153
C    10.06000042  10.10000038  55.38000107
C     9.06999969   9.85000038  56.37000275
C     7.76000023  10.15999985  56.11999893
C     7.30999994  10.71000004  54.88999939
C     8.26000023  10.97000027  53.93000031
C     9.63999939  10.70000076  54.13999939
C    13.88000011  10.59999943  54.93999863
C    14.42000008  11.33999920  53.86000061
C    15.76000023  11.72000027  53.79000092
C     5.84999990  11.00000000  54.64000320
H     5.50107241  10.50153160  53.73563766
H    10.44999981  11.71000004  52.36000061
H    11.87000084   9.67000008  56.60999680
H     9.50000000   9.31999969  57.22000122
H     7.03999996   9.98999977  56.91999817
H     8.05000019  11.44000053  52.97000122
H    16.14999962  12.27000046  52.95000076
H     5.28999996  10.65999985  55.52000046
H     5.73999977  12.09000015  54.55999756
S    17.19000053  10.29000092  57.18000031
C    19.85000038  10.72000027  56.44000244
C    18.51000023  10.90999985  56.17000198
C    18.00000000  11.63000011  55.04000092
C    18.89000130  12.18999958  54.13999939
C    20.28000069  12.10000038  54.38999939
C    21.22999954  12.48999977  53.40999985
C    22.57999802  12.35000038  53.61000061
C    23.02999878  11.72000027  54.79999924
C    22.13999939  11.21999931  55.72999954
C    20.73999786  11.39000034  55.56000137
C    16.56999969  11.43000031  54.89999771
C    15.97000027  10.69000053  55.94999695
C    14.68000031  10.18000031  56.00999832
C    24.48999786  11.32999992  54.88999939
H    24.91880798  11.68734074  55.82622910
H    20.19000053  10.22999954  57.34000397
H    18.54999924  12.53000069  53.15999985
H    20.93000031  12.56000042  52.36999893
H    23.28000069  12.43999958  52.77999878
H    22.37999916  10.55999947  56.56000137
H    14.34000015   9.52999973  56.81000137
H    24.99000168  11.69999981  53.99000168
H    24.47000122  10.24000072  54.95999908
