96

S    16.42000008  15.53999996  60.26000214
C    19.13999939  15.67000008  59.55999756
C    17.86000061  15.27999973  59.25000000
C    17.50000000  14.78000069  57.95999908
C    18.52000046  14.59000015  57.04999924
C    19.86999893  14.85999966  57.38999939
C    20.93000031  14.73999977  56.45000076
C    22.23999977  15.06999969  56.72999954
C    22.52000046  15.64000034  58.00000000
C    21.54000092  15.85000038  58.95000076
C    20.20999908  15.44999981  58.66000366
C    16.04999924  14.65999985  57.80000305
C    15.32999992  15.07999992  58.94000244
C    13.94000053  15.19999981  58.96999741
C    23.90000153  16.15999985  58.31999969
H    24.49575233  15.39403248  58.81645966
H    19.37000084  16.14999962  60.51000214
H    18.37000084  14.18000031  56.05999756
H    20.68000031  14.32000065  55.47999954
H    23.05000114  15.00000000  56.00999832
H    21.76000214  16.38000107  59.86999893
H    13.45999908  15.39999962  59.92000198
H    24.44000053  16.61000061  57.47000122
H    23.68000031  17.01000023  58.97999573
S    12.76999950  13.86000061  55.44000244
C    10.07999992  13.90999985  56.10000229
C    11.36999989  14.25000000  56.45999908
C    11.77999973  14.65999985  57.76000214
C    10.80000019  14.77000046  58.73000336
C     9.47000027  14.34000015  58.47000122
C     8.38000011  14.37999916  59.38000107
C     7.13000011  13.89999962  59.08000183
C     6.77999973  13.55000019  57.75000000
C     7.76000023  13.66000080  56.79000092
C     9.11999989  13.89999962  57.14000320
C    13.22999954  14.77000046  57.84000015
C    13.94000053  14.34000015  56.69000244
C    15.31999969  14.23999977  56.68000031
C     5.31000042  13.32999992  57.45999908
H     4.98265791  14.00603294  56.67010880
H     9.81000042  13.61999989  55.08999634
H    11.05999947  14.98000050  59.75999832
H     8.64000034  14.65000057  60.40000153
H     6.35999966  14.09999943  59.82999802
H     7.46000004  13.53999996  55.76000214
H    15.73999977  13.85000038  55.76000214
H     4.73000002  13.52000046  58.36999893
H     5.13000011  12.30000019  57.12999725
S    17.25000000  15.64000034  54.18000031
C    19.84000015  16.18000031  53.40000153
C    18.60000038  15.71000004  53.02000046
C    18.23999977  15.27999973  51.70000076
C    19.29000092  15.29999924  50.79999924
C    20.62999916  15.57000065  51.13999939
C    21.76000214  15.44000053  50.27999878
C    23.03999901  15.80000019  50.63000107
C    23.26999855  16.25000000  51.95000076
C    22.22999954  16.42000008  52.83000183
C    20.89999962  16.09000015  52.45999908
C    16.79999924  15.08999920  51.59999847
C    16.13999939  15.26000023  52.84000015
C    14.75999928  15.27999973  52.94000244
C    24.64999962  16.76000023  52.32999802
H    25.08659363  16.30193329  53.21749878
H    19.98999977  16.62999916  54.36999893
H    19.18000031  14.82999992  49.81999969
H    21.55999947  15.38000011  49.20999908
H    23.77000046  15.80999947  49.82999802
H    22.34999847  16.79999924  53.83999634
H    14.27999973  15.44000053  53.89999771
H    25.32999992  16.72000122  51.46999741
H    24.56000137  17.85000038  52.43000031
S    13.45999908  14.70999908  49.26000214
C    10.75000000  14.55999947  50.01999664
C    12.06999969  14.75999928  50.34999847
C    12.51000023  15.21000004  51.63999939
C    11.51999950  15.44999981  52.56999969
C    10.14999962  15.21000004  52.29000092
C     9.13000011  15.47000027  53.25000000
C     7.82999992  15.15999985  52.90999985
C     7.36999989  14.80000019  51.62000275
C     8.34999943  14.70999908  50.65000153
C     9.72999954  14.78000069  50.97999954
C    13.94999981  15.26999950  51.79000092
C    14.61999989  15.00000000  50.56999969
C    16.01000023  14.89999962  50.45999908
C     5.93999958  14.40000057  51.32999802
H     5.45465183  14.94958496  50.52346420
H    10.57000065  14.27999973  48.97999573
H    11.79999924  15.93000031  53.50000000
H     9.35000038  15.69000053  54.29000092
H     7.13999987  15.06000042  53.74000168
H     8.13000011  14.34000015  49.65000153
H    16.52000046  14.57999992  49.55999756
H     5.36999989  14.51000023  52.25000000
H     5.98999977  13.32999992  51.05999756
