96

S    16.65999985  15.90999985  60.31000137
C    19.36000061  15.62999916  59.87999725
C    18.09000015  15.39999962  59.40000153
C    17.81999969  14.85000038  58.09999847
C    18.89000130  14.68999958  57.22999954
C    20.20999908  14.96000099  57.64999771
C    21.38999939  14.73000050  56.86999893
C    22.65999985  14.98999977  57.32999802
C    22.85000038  15.55999947  58.61000061
C    21.75000000  15.77999973  59.40999985
C    20.43999863  15.44000053  58.99000168
C    16.39000130  14.70000076  57.90999985
C    15.65999985  15.29999924  58.96999741
C    14.28999996  15.52000046  58.99000168
C    24.18999863  16.14999962  58.99000168
H    24.78761482  15.36029339  59.44532394
H    19.47000122  16.13999939  60.83000183
H    18.71999931  14.42000008  56.18999863
H    21.25999832  14.26000023  55.90000153
H    23.50000000  14.91000080  56.63999939
H    21.90999985  16.35000038  60.33000183
H    13.68000031  15.88999939  59.81999969
H    24.68000031  16.60000038  58.11000061
H    23.95999908  16.92000008  59.72999954
S    13.12999916  14.18000031  55.40000153
C    10.42000008  14.32999992  56.00999832
C    11.71000004  14.65999985  56.35000229
C    12.13999939  15.14000034  57.63000107
C    11.16000080  15.27999973  58.59000397
C     9.81999969  14.92000008  58.29000092
C     8.85000038  14.96999931  59.33000183
C     7.53000021  14.68000031  59.03999710
C     7.09999990  14.11000061  57.81000137
C     8.05000019  14.06999969  56.81000137
C     9.39999962  14.47999954  56.98999786
C    13.57999992  15.10000038  57.87000275
C    14.22999954  14.53999996  56.73999786
C    15.59000015  14.26000023  56.84000015
C     5.66999960  13.73999977  57.50000000
H     5.29992056  14.22394943  56.59615707
H    10.13000011  13.73999977  55.14999771
H    11.39999962  15.43000031  59.64000320
H     9.13000011  15.18000031  60.35999680
H     6.86999989  14.75000000  59.88999939
H     7.78999996  13.60000038  55.86999893
H    15.95999908  13.71000099  55.97999954
H     5.03000021  14.01000023  58.34999847
H     5.65000010  12.64999962  57.43999863
S    17.23999977  16.09000015  54.23999786
C    19.97999954  15.80000019  53.63999939
C    18.65999985  15.52000046  53.34999847
C    18.25000000  15.17000008  52.02000046
C    19.19999886  15.06999969  51.02000427
C    20.53999901  15.44999981  51.26999664
C    21.57999992  15.50000000  50.30000305
C    22.90999985  15.53999996  50.61000061
C    23.26999855  15.73999977  51.97000122
C    22.32000160  15.95999908  52.93000031
C    20.94000053  15.81999969  52.60000229
C    16.81999969  15.21000004  51.76000214
C    16.13000107  15.65000057  52.91999817
C    14.75999928  15.82999992  52.91999817
C    24.71999931  16.06999969  52.25999832
H    25.07659721  15.37820148  53.02311707
H    20.32999992  15.97000027  54.65000153
H    18.98999977  14.61999989  50.05000305
H    21.19999886  15.14000034  49.34000015
H    23.69999886  15.39000034  49.86999893
H    22.63000107  16.38000107  53.88999939
H    14.19999981  16.36000061  53.69999695
H    25.35000038  15.98999977  51.36000061
H    24.80999947  17.13000107  52.52999878
S    13.67000008  14.65999985  49.26000214
C    10.98999977  14.42000008  50.00000000
C    12.25999928  14.82999992  50.31999969
C    12.57999992  15.39999962  51.59999847
C    11.56999969  15.78999996  52.45999908
C    10.26000023  15.36999893  52.15999985
C     9.17000008  15.48999977  53.06999969
C     7.88000011  15.07999992  52.81000137
C     7.55999994  14.51000023  51.55000305
C     8.60000038  14.35999966  50.65999985
C     9.94999981  14.70999908  50.91999817
C    14.01999950  15.51000023  51.77999878
C    14.72000027  15.13000011  50.61000061
C    16.10999870  15.06999969  50.56000137
C     6.17999983  13.94999981  51.29000092
H     5.68317127  14.43973064  50.45248795
H    10.81999969  14.04000092  48.99000168
H    11.82999992  16.18000031  53.43999863
H     9.52999973  15.88999939  54.02000046
H     7.03000021  15.34000015  53.43000031
H     8.52999973  13.75000000  49.75999832
H    16.67000008  14.77000046  49.68000031
H     5.49000025  14.01999950  52.14000320
H     6.32999992  12.92000008  50.96000290
