96

S    16.43000031  15.59999943  60.38000107
C    19.14999962  15.73999977  59.75999832
C    17.88999939  15.34999943  59.40000153
C    17.53999901  14.80000019  58.11999893
C    18.57999992  14.60999966  57.22999954
C    19.92000008  14.93999958  57.56999969
C    21.01000023  14.84000015  56.65999985
C    22.27000046  15.31999969  56.95000076
C    22.46000099  16.00000000  58.18000031
C    21.48999977  16.13000107  59.13999939
C    20.20000076  15.62000084  58.80000305
C    16.10000038  14.78000069  57.87000275
C    15.38000011  15.26000023  59.00000000
C    14.01999950  15.51000023  58.97999573
C    23.88999939  16.32999992  58.54999924
H    24.19659424  15.93784428  59.51969528
H    19.29999924  16.38000107  60.61999893
H    18.44000053  14.18000031  56.24000168
H    20.81000137  14.34000015  55.72000122
H    23.09000015  15.17000008  56.25999832
H    21.55999947  16.54999924  60.13999939
H    13.55000019  15.95000076  59.85000229
H    24.53000069  15.88000107  57.77000046
H    24.10000038  17.39999962  58.54000092
S    12.88000011  14.11000061  55.43000031
C    10.17000008  14.32999992  56.03000259
C    11.46999931  14.63999939  56.36000061
C    11.87999916  15.15999985  57.63000107
C    10.88000107  15.38000011  58.55999756
C     9.53999996  15.05000019  58.23999786
C     8.53999996  15.01000023  59.25000000
C     7.23999977  14.56999969  59.09999847
C     6.86999989  14.09999943  57.81999969
C     7.77999973  14.09000015  56.79000092
C     9.11000061  14.56999969  56.95000076
C    13.31999969  15.18000031  57.80000305
C    14.01000023  14.63999939  56.69000244
C    15.38000011  14.39000034  56.73999786
C     5.40999985  13.86000061  57.49000168
H     5.04705381  14.55030918  56.72852707
H     9.94000053  13.76999950  55.13000107
H    11.17000008  15.67000008  59.56999969
H     8.84000015  15.44000053  60.20999908
H     6.57999992  14.35999966  59.93000031
H     7.50999975  13.64999962  55.83000183
H    15.88999939  13.92000008  55.90000153
H     4.79999971  14.00000000  58.39000320
H     5.23000002  12.86000061  57.08000183
S    16.90000153  16.10000038  54.43000031
C    19.59000015  15.98999977  53.77999878
C    18.29000092  15.72000027  53.40000153
C    17.98999977  15.19999981  52.09999847
C    18.98999977  14.94999981  51.17000198
C    20.29999924  15.36999893  51.50000000
C    21.34000015  15.26999950  50.52999878
C    22.56999969  15.84000015  50.77999878
C    22.85000038  16.21000099  52.11999893
C    21.94000053  16.22999954  53.15000153
C    20.59999847  15.88000107  52.81000137
C    16.54999924  15.27999973  51.93999863
C    15.81999969  15.80000019  53.04999924
C    14.44000053  15.88999939  53.06999969
C    24.23999977  16.72000122  52.45999908
H    24.79365540  16.07406807  53.14142227
H    19.80999947  16.53000069  54.69999695
H    18.78000069  14.48999977  50.20999908
H    20.97999954  14.86999989  49.59000015
H    23.19000053  16.20000076  49.95999908
H    22.18000031  16.44000053  54.18000031
H    13.93000031  16.17000008  53.99000168
H    24.86000061  16.87999916  51.58000183
H    24.07999992  17.67000008  52.97000122
S    13.36999989  14.70000076  49.41999817
C    10.62999916  14.55999947  50.11000061
C    11.92999935  14.88999939  50.44000244
C    12.27000046  15.34999943  51.75000000
C    11.23999977  15.65999985  52.61000061
C     9.89000034  15.34999943  52.31999969
C     8.80000019  15.64000034  53.18999863
C     7.55999994  15.14000034  52.87000275
C     7.21000004  14.55000019  51.63000107
C     8.26000023  14.35999966  50.76000214
C     9.61000061  14.67000008  51.09000397
C    13.71000099  15.50000000  51.93000031
C    14.44000053  15.15999985  50.77000046
C    15.82999992  15.03999901  50.76000214
C     5.78000021  14.13000011  51.38000107
H     5.23149633  14.79960155  50.71752167
H    10.44000053  14.19000053  49.10999680
H    11.39000034  16.14999962  53.56999969
H     9.06999969  15.97000027  54.19000244
H     6.84000015  15.06000042  53.68000031
H     7.96999979  13.96999931  49.78000259
H    16.36999893  14.65999985  49.91000366
H     5.28999996  14.06000042  52.36000061
H     5.84000015  13.12000084  50.96000290
