96

S    16.40999985  16.01000023  60.11000061
C    19.17000008  15.92000008  59.59000015
C    17.87999916  15.62000084  59.20000076
C    17.56000137  15.11000061  57.90000153
C    18.60999870  14.73999977  57.08000183
C    19.93999863  15.18000031  57.31999969
C    20.95999908  14.96999931  56.35000229
C    22.25000000  15.29999924  56.70999908
C    22.50000000  15.90000057  57.97999954
C    21.51000023  16.18000031  58.88999939
C    20.17999840  15.76000023  58.61999893
C    16.11999893  15.11999989  57.70000076
C    15.32999992  15.67000008  58.75000000
C    13.94000053  15.67000008  58.76999664
C    23.92000008  16.36000061  58.25000000
H    24.35485458  15.76831436  59.05554962
H    19.40000153  16.31000137  60.58000183
H    18.47999954  14.22999954  56.13999939
H    20.76999855  14.55000019  55.37000275
H    23.03999901  15.26999950  55.97000122
H    21.75000000  16.64999962  59.84000397
H    13.30000019  15.76000023  59.64000320
H    24.50000000  16.31000137  57.31999969
H    23.97999954  17.40999985  58.54000092
S    12.90999985  13.80000019  55.45000076
C    10.19000053  13.86000061  56.09000397
C    11.47999954  14.23999977  56.39999771
C    11.82999992  14.88000011  57.63000107
C    10.82999992  15.13000011  58.54999924
C     9.50000000  14.73999977  58.26000214
C     8.39999962  15.08999920  59.09999847
C     7.11000013  14.88999939  58.67000198
C     6.78999996  14.25000000  57.44999695
C     7.81000042  13.93000031  56.58000183
C     9.15000057  14.11999893  57.02000046
C    13.26000023  15.15999985  57.65999603
C    14.00000000  14.61999989  56.56999969
C    15.39000034  14.53999996  56.65999985
C     5.38000011  13.86000061  57.08000183
H     4.91968298  14.39821720  56.25143051
H     9.94000053  13.56999969  55.06999969
H    11.05000019  15.53999996  59.52999878
H     8.67000008  15.72000027  59.93999863
H     6.23000050  15.19999981  59.22000122
H     7.55000019  13.63000011  55.56999969
H    15.88999939  13.85000038  56.00000000
H     4.76999998  14.02999973  57.97999954
H     5.42999983  12.81000042  56.77000046
S    17.28999901  16.22999954  54.34999847
C    19.95000076  16.25000000  53.48999786
C    18.63999939  15.88999939  53.26000214
C    18.27000046  15.29999924  52.01000214
C    19.22999954  14.98999977  51.06999969
C    20.56999969  15.40999985  51.27999878
C    21.54999924  15.19999981  50.27000046
C    22.86999893  15.39999962  50.61000061
C    23.26000023  16.10000038  51.79000092
C    22.30999947  16.42000008  52.72999573
C    20.95999908  16.03999901  52.51999664
C    16.81999969  15.14000034  51.93999863
C    16.18000031  15.67000008  53.09000015
C    14.78999996  15.71000004  53.13999939
C    24.72999954  16.44000053  51.93999863
H    25.14201546  15.85749435  52.76403046
H    20.15999985  16.86000061  54.36999893
H    19.01000023  14.34000015  50.22999573
H    21.22999954  14.57999992  49.43999863
H    23.62999916  15.05000019  49.92000198
H    22.50999832  17.12000084  53.53000259
H    14.32999992  16.11999893  54.02999878
H    25.25000000  16.36999893  50.97999954
H    24.86999893  17.47999954  52.23999786
S    13.66000080  14.70999908  49.40000153
C    11.05000019  14.73999977  50.06999969
C    12.30000019  15.14999962  50.45999908
C    12.63000011  15.57000065  51.79000092
C    11.61999893  15.77999973  52.70999908
C    10.31999969  15.39000034  52.34000397
C     9.26000023  15.44000053  53.27999878
C     7.99000025  15.05000019  52.91999817
C     7.65999985  14.61999989  51.60999680
C     8.64999962  14.65999985  50.65000153
C    10.00000000  14.98000050  51.00000000
C    14.06999969  15.46000004  51.95999908
C    14.72000027  14.96000099  50.79999924
C    16.07999992  14.70000076  50.84000015
C     6.21000004  14.22000027  51.42000198
H     5.74614477  14.79803562  50.62074280
H    10.84000015  14.28999996  49.09999847
H    11.90000057  16.09000015  53.72000122
H     9.42000008  15.85999966  54.27999878
H     7.21000004  15.08999920  53.68000031
H     8.43999958  14.34000015  49.64000320
H    16.69000053  14.48999977  49.95999908
H     5.68000031  14.32000065  52.37999725
H     6.11999989  13.20000076  51.04000092
