96

S    16.97000122  16.17000008  60.00999832
C    19.65999985  16.17000008  59.41999817
C    18.39999962  15.80999947  59.02000046
C    18.00000000  15.00000000  57.90999985
C    19.03000069  14.61999989  57.06999969
C    20.35000038  15.03999901  57.36000061
C    21.44000053  14.72000027  56.49000168
C    22.73999977  15.00000000  56.81000137
C    23.02999878  15.77999973  57.95999908
C    22.04000092  16.18000031  58.81999969
C    20.69999886  15.80000019  58.53000259
C    16.57999992  14.73000050  57.76000214
C    15.90999985  15.34999943  58.83999634
C    14.52999973  15.55999947  58.81000137
C    24.44999886  16.23999977  58.23999786
H    24.93610764  15.77533817  59.09783554
H    19.82999992  16.81999969  60.27999878
H    18.85000038  13.96000004  56.23000336
H    21.18999863  14.19000053  55.56999969
H    23.52999878  14.78000069  56.10000229
H    22.23999977  16.76000023  59.72000122
H    13.94000053  16.03999901  59.59000015
H    25.07999802  16.22999954  57.34000397
H    24.37000084  17.32999992  58.40000153
S    13.36999989  13.64999962  55.52999878
C    10.62000084  13.82999992  56.27999878
C    11.95000076  14.11999893  56.47999573
C    12.36999989  14.88000011  57.62000275
C    11.40999985  15.22999954  58.54999924
C    10.01999950  14.98000050  58.39000320
C     9.06999969  15.34000015  59.38000107
C     7.78999996  14.85000038  59.26000214
C     7.40999985  14.06000042  58.13999939
C     8.30999947  13.69999981  57.18000031
C     9.63999939  14.19999981  57.23999786
C    13.81000042  14.98999977  57.75000000
C    14.50000000  14.27999973  56.73999786
C    15.88999939  14.15999985  56.69000244
C     5.97000027  13.64999962  57.91999817
H     5.52141571  14.19114876  57.08691406
H    10.34999943  13.09000015  55.52999878
H    11.65999985  15.80999947  59.43000031
H     9.44000053  15.80999947  60.28999710
H     7.07000017  15.06999969  60.05000305
H     8.07999992  12.96000004  56.40999603
H    16.35000038  13.78000069  55.77999878
H     5.32999992  13.73999977  58.81000137
H     6.03999996  12.56000042  57.78999710
S    13.40000057  12.09000015  52.36999893
C    10.80999947  11.52999973  53.01000214
C    12.13000107  11.21000099  53.25000000
C    12.57999992  10.50000000  54.40999985
C    11.59999943  10.08999920  55.30000305
C    10.24000072  10.40999985  55.06000137
C     9.26000023  10.21999931  56.06999969
C     7.90999985  10.32999992  55.80999756
C     7.44999981  10.88999939  54.59000015
C     8.39999962  11.35000038  53.69999695
C     9.78999996  11.10999966  53.88999939
C    14.01999950  10.70000076  54.52000046
C    14.61999989  11.51000023  53.53000259
C    15.95999908  11.87000084  53.48999786
C     5.97000027  10.93000031  54.29000092
H     5.64894533  10.14519882  53.60508347
H    10.48999977  12.23000050  52.23999786
H    11.87000084   9.59999943  56.23000336
H     9.52999973   9.94000053  57.09000015
H     7.11000013  10.08999920  56.50000000
H     8.14000034  11.80999947  52.75000000
H    16.39999962  12.46999931  52.70999908
H     5.46000004  10.71000004  55.24000168
H     5.69999981  11.94000053  53.95999908
S    17.35000038  10.36000061  56.86000061
C    20.05000114  10.98999977  56.18999863
C    18.70000076  11.10000038  55.97999954
C    18.20000076  11.67000008  54.75999832
C    19.10000038  12.20000076  53.85000229
C    20.48999977  12.15999985  54.10999680
C    21.47000122  12.56999969  53.15000153
C    22.79999924  12.46999931  53.47000122
C    23.29999924  12.05000019  54.72999954
C    22.39000130  11.61000061  55.66999817
C    21.01000023  11.61999893  55.34000015
C    16.76000023  11.51000023  54.59000015
C    16.17000008  10.70000076  55.58000183
C    14.81999969  10.34999943  55.61000061
C    24.77999878  12.27000046  54.95999908
H    25.09308243  11.93557072  55.94905853
H    20.45000076  10.42000008  57.02000046
H    18.68000031  12.79999924  53.04999924
H    21.04000092  13.00000000  52.25000000
H    23.45999908  12.98999977  52.77999878
H    22.75000000  11.10999966  56.56000137
H    14.30999947   9.94000053  56.47999573
H    25.06999969  13.27999973  54.65000153
H    25.31999969  11.61999893  54.25000000
