96

S    16.63999939  15.80999947  60.15999603
C    19.38999939  15.70000076  59.56999969
C    18.09999847  15.34999943  59.25000000
C    17.71999931  14.85000038  57.97000122
C    18.68999863  14.70999908  56.98999786
C    20.00000000  15.18000031  57.22000122
C    21.04000092  14.85000038  56.30000305
C    22.36000061  15.11000061  56.56999969
C    22.70000076  15.80999947  57.76000214
C    21.70000076  16.05999947  58.68000031
C    20.36000061  15.60999966  58.54000092
C    16.28000069  14.77000046  57.81000137
C    15.52000046  15.34000015  58.87000275
C    14.13000011  15.39999962  58.94000244
C    24.13000107  16.21000099  58.02000046
H    24.57770729  15.63437748  58.83013535
H    19.70999908  16.21000099  60.47999954
H    18.48999977  14.25000000  56.02000427
H    20.79000092  14.39000034  55.34999847
H    23.05000114  14.73000050  55.81999969
H    21.97999954  16.64999962  59.54999924
H    13.45000076  15.78999996  59.69999695
H    24.70999908  16.07999992  57.09999847
H    24.04000092  17.27000046  58.27000046
S    13.09999943  13.94999981  55.35999680
C    10.38000011  13.85000038  56.04999924
C    11.65999985  14.28999996  56.33999634
C    11.98999977  14.94999981  57.56000137
C    10.95999908  15.26000023  58.43000031
C     9.63999939  14.80999947  58.20000076
C     8.56999969  14.92000008  59.13999939
C     7.28999996  14.52999973  58.82999802
C     7.00000000  13.83999920  57.63000107
C     8.02999973  13.61999989  56.73999786
C     9.35000038  14.09999943  56.97999954
C    13.42000008  14.98999977  57.81000137
C    14.14000034  14.55000019  56.66999817
C    15.52000046  14.40000057  56.69000244
C     5.55999994  13.55000019  57.25000000
H     5.27653646  14.09566784  56.35000229
H    10.15999985  13.27000046  55.15999603
H    11.23999977  15.47999954  59.45999908
H     8.88000011  15.38000011  60.07999802
H     6.46000004  14.81999969  59.47999954
H     7.90000010  13.07999992  55.79999924
H    16.07999992  13.86999989  55.91999817
H     4.84000015  13.86000061  58.02000046
H     5.45000029  12.48000050  57.06999969
S    13.19000053  11.94000053  52.43000031
C    10.59999943  11.26000023  52.95999908
C    11.92999935  11.00999928  53.25000000
C    12.32999992  10.42000008  54.48999786
C    11.38000011   9.94000053  55.37000275
C    10.03000069  10.29999924  55.15999603
C     9.04999924   9.98000050  56.13999939
C     7.71000004  10.07999992  55.84999847
C     7.30999994  10.51000023  54.55999756
C     8.23000050  10.93999958  53.61999893
C     9.61999989  10.90999985  53.92000198
C    13.75000000  10.65999985  54.71000290
C    14.32999992  11.46999931  53.69999695
C    15.65000057  11.89000034  53.76999664
C     5.84999990  10.84000015  54.38999939
H     5.42939472  10.66890621  53.39908218
H    10.29999924  11.80999947  52.08000183
H    11.50000000   9.35000038  56.27999878
H     9.35000038   9.46000004  57.04000092
H     7.03999996   9.75000000  56.63999939
H     7.90000010  11.44000053  52.71999741
H    16.13999939  12.60000038  53.11000061
H     5.25000000  10.43000031  55.21999741
H     5.92999983  11.90999985  54.61000061
S    16.98999977  10.38000011  57.23999786
C    19.67000008  10.90999985  56.63000107
C    18.34000015  11.02000046  56.27999878
C    17.89999962  11.52999973  55.01999664
C    18.81999969  12.05999947  54.13999939
C    20.20000076  11.92000008  54.41999817
C    21.19999886  12.38999939  53.52000427
C    22.52000046  12.41000080  53.89999771
C    22.90999985  11.65999985  55.04000092
C    22.00000000  11.05000019  55.86999893
C    20.61000061  11.28000069  55.63999939
C    16.45000076  11.46000004  54.82999802
C    15.88000107  10.72999954  55.90000153
C    14.53999996  10.34999943  55.83000183
C    24.38999939  11.39999962  55.20999908
H    24.73881721  11.67051125  56.20661926
H    19.88999939  10.36000061  57.55000305
H    18.51000023  12.55000019  53.22000122
H    20.92000008  12.79999924  52.55000305
H    23.19000053  12.93000031  53.22999954
H    22.17000008  10.50000000  56.79999924
H    14.18000031   9.75000000  56.65999985
H    24.87999916  11.92999935  54.38000107
H    24.63000107  10.34999943  54.97000122
