96

S    16.72000122  15.78999996  60.38999939
C    19.43000031  15.93999958  59.68999863
C    18.15000153  15.53999996  59.38000107
C    17.78000069  15.11000061  58.06000137
C    18.73999977  15.07999992  57.06999969
C    20.09000015  15.40999985  57.36000061
C    21.09000015  15.34999943  56.35000229
C    22.34000015  15.84000015  56.68000031
C    22.65000153  16.39999962  57.94000244
C    21.70000076  16.46999931  58.93000031
C    20.42000008  15.90000057  58.67000198
C    16.34000015  15.06999969  57.84999847
C    15.64000034  15.44000053  59.02999878
C    14.27999973  15.72000027  59.00000000
C    24.04000092  16.90000153  58.23999786
H    24.60750389  16.12677765  58.75784302
H    19.82999992  16.35000038  60.61000061
H    18.54999924  14.75999928  56.04999924
H    20.73999786  15.03000069  55.37000275
H    23.06999969  15.90999985  55.87999725
H    22.04000092  16.77000046  59.92000198
H    13.73000050  15.98000050  59.89999771
H    24.53000069  17.18000031  57.29999924
H    24.07999992  17.84000015  58.81000137
S    13.15999985  14.53999996  55.35999680
C    10.43000031  14.51000023  56.04999924
C    11.72000027  14.85999966  56.36000061
C    12.06999969  15.32999992  57.65999603
C    11.05000019  15.50000000  58.57999802
C     9.70000076  15.21000004  58.25000000
C     8.63000011  15.40999985  59.16999817
C     7.32999992  15.03999901  58.90999603
C     7.07999992  14.32999992  57.70999908
C     8.06999969  14.06999969  56.79000092
C     9.35000038  14.67000008  56.97000122
C    13.50000000  15.44999981  57.85999680
C    14.21000004  15.05000019  56.70000076
C    15.59000015  14.88999939  56.69000244
C     5.71000004  13.78000069  57.38999939
H     5.21895552  14.32797718  56.58582306
H    10.25000000  13.97999954  55.12000275
H    11.21999931  15.80999947  59.61000061
H     8.90999985  15.64000034  60.20000076
H     6.53999996  15.29999924  59.61000061
H     7.86000013  13.50000000  55.90000153
H    16.10999870  14.59000015  55.77999878
H     5.13000011  13.89999962  58.30999756
H     5.86999989  12.71000004  57.18000031
S    13.21000004  12.23999977  52.51999664
C    10.53999996  11.64999962  53.30999756
C    11.90000057  11.54000092  53.48999786
C    12.39999962  11.00000000  54.72000122
C    11.54999924  10.44000053  55.65000153
C    10.14999962  10.44999981  55.44000244
C     9.19000053  10.00000000  56.39999771
C     7.86999989   9.85000038  56.03000259
C     7.39000034  10.46000004  54.85000229
C     8.26000023  11.05999947  53.95999908
C     9.65999985  11.00999928  54.22000122
C    13.83999920  11.16000080  54.88999939
C    14.37999916  11.92999935  53.82999802
C    15.71000004  12.34000015  53.77999878
C     5.92999983  10.32999992  54.47000122
H     5.60265779  10.65022564  53.48085785
H    10.21999931  12.22000027  52.43999863
H    11.92999935  10.05000019  56.59000015
H     9.53999996   9.61999989  57.35000229
H     7.23999977   9.22000027  56.65000153
H     7.95000029  11.44999981  52.98999786
H    16.05999947  12.79000092  52.84999847
H     5.73000002   9.25000000  54.47999954
H     5.35000038  10.85000038  55.24000168
S    17.26000023  10.85999966  57.02000046
C    19.93000031  11.50000000  56.32999802
C    18.57999992  11.61000061  56.10000229
C    18.01000023  12.13999939  54.89999771
C    18.89000130  12.63000011  53.95000076
C    20.29000092  12.53999901  54.13999939
C    21.19999886  13.07999992  53.18000031
C    22.55000114  12.98999977  53.41999817
C    23.05000114  12.56000042  54.68000031
C    22.22999954  11.97000027  55.61999893
C    20.84000015  11.98999977  55.34999847
C    16.55999947  11.98999977  54.82999802
C    15.98999977  11.13999939  55.80999756
C    14.68999958  10.67000008  55.89000320
C    24.47000122  12.86999893  55.06999969
H    24.91835594  12.21525955  55.81725693
H    20.29999924  10.93999958  57.18000031
H    18.48999977  12.98999977  53.01000214
H    20.82999992  13.59000015  52.29999924
H    23.00000000  13.59000015  52.63000107
H    22.56000137  11.77000046  56.63999939
H    14.39000034   9.94999981  56.63999939
H    24.51999855  13.89000034  55.48999786
H    25.12000084  12.94999981  54.19000244
