96

S    16.67000008  15.90000057  60.40000153
C    19.36000061  15.80000019  59.69999695
C    18.05999947  15.52000046  59.36999893
C    17.68000031  15.14999962  58.02999878
C    18.65999985  14.98000050  57.06999969
C    20.03000069  15.14000034  57.42000198
C    21.04999924  14.85999966  56.46999741
C    22.36999893  15.03999901  56.81999969
C    22.73999977  15.60999966  58.06999969
C    21.76000214  15.85000038  59.01000214
C    20.38999939  15.62999916  58.73000336
C    16.23999977  15.11000061  57.85999680
C    15.57999992  15.53999996  59.03999710
C    14.21000004  15.78999996  59.02999878
C    24.18000031  15.98999977  58.33000183
H    24.66626549  15.53948975  59.19526672
H    19.52999878  16.14999962  60.70999908
H    18.45000076  14.65999985  56.05999756
H    20.78000069  14.68999958  55.43000031
H    23.09000015  14.75000000  56.06999969
H    21.97999954  16.25000000  60.00000000
H    13.78000069  16.14999962  59.95999908
H    24.69000053  15.69000053  57.41000366
H    24.18000031  17.07999992  58.46000290
S    13.01000023  14.17000008  55.59999847
C    10.34000015  14.40999985  56.26999664
C    11.64999962  14.68000031  56.60999680
C    11.97999954  15.26000023  57.88000107
C    10.98999977  15.65000057  58.75999832
C     9.64999962  15.40999985  58.37999725
C     8.65999985  15.70000076  59.36999893
C     7.35000038  15.42000008  59.08000183
C     6.98000002  14.78000069  57.87000275
C     7.90000010  14.56999969  56.86999893
C     9.27999973  14.80999947  57.11999893
C    13.43000031  15.34000015  57.95999908
C    14.11000061  14.77000046  56.84999847
C    15.50000000  14.73999977  56.73999786
C     5.56999969  14.27000046  57.68000031
H     5.05750799  14.77537441  56.86143494
H    10.21999931  13.83999920  55.34999847
H    11.11999989  16.01000023  59.77000427
H     8.82000065  15.95000076  60.40999985
H     6.51999998  15.44000053  59.79000092
H     7.62000036  14.04999924  55.96000290
H    16.01000023  14.29999924  55.87999725
H     5.00999975  14.34000015  58.62999725
H     5.49000025  13.21000004  57.42000198
S    17.00000000  16.34000015  54.31000137
C    19.68000031  16.22999954  53.47000122
C    18.36000061  15.92000008  53.23999786
C    17.93000031  15.43000031  51.95999908
C    18.85000038  15.13000011  50.97999954
C    20.17999840  15.57000065  51.14999771
C    21.15999985  15.42000008  50.13000107
C    22.46999931  15.80999947  50.27000046
C    22.88999939  16.39000130  51.50000000
C    21.94000053  16.61000061  52.47000122
C    20.58000183  16.20000076  52.37999725
C    16.47999954  15.50000000  51.83000183
C    15.85999966  16.02000046  52.98999786
C    14.47999954  16.15999985  53.06000137
C    24.33000183  16.73999977  51.81000137
H    24.66398239  16.12888336  52.64850998
H    20.00000000  16.65999985  54.40999985
H    18.44000053  14.80999947  50.01999664
H    20.92000008  14.77000046  49.29000092
H    23.11000061  15.52999973  49.43999863
H    22.22999954  17.05000114  53.41999817
H    14.11000061  16.40999985  54.05000305
H    24.94999886  16.52000046  50.93999863
H    24.41999817  17.80999947  52.05999756
S    13.14000034  14.91000080  49.52000046
C    10.42000008  14.93999958  50.31000137
C    11.75000000  15.11000061  50.61000061
C    12.20999908  15.55999947  51.88999939
C    11.30000019  15.69000053  52.91999817
C     9.92000008  15.53999996  52.64999771
C     8.89999962  15.69000053  53.63999939
C     7.55999994  15.55999947  53.36999893
C     7.16000032  15.19000053  52.04999924
C     8.10000038  15.10000038  51.05999756
C     9.48999977  15.34000015  51.29000092
C    13.63999939  15.75000000  52.01000214
C    14.27999973  15.39000034  50.79999924
C    15.65999985  15.25000000  50.72000122
C     5.75999975  14.68000031  51.81999969
H     5.29760885  15.19930077  50.98058319
H    10.06999969  14.14000034  49.65999985
H    11.56999969  15.88000107  53.95999908
H     9.22000027  15.88999939  54.65999985
H     6.83000040  15.59000015  54.16999817
H     7.73000002  14.73000050  50.11000061
H    16.04999924  14.63000107  49.92000198
H     5.05000019  14.68999958  52.65999603
H     5.79999971  13.60999966  51.59000015
