96

S    16.92000008  15.43000031  60.34000015
C    19.63000107  15.62999916  59.73999786
C    18.36000061  15.31999969  59.31999969
C    18.00000000  15.00000000  57.97000122
C    19.00000000  14.84000015  57.02999878
C    20.32999992  15.08999920  57.43999863
C    21.40999985  15.03999901  56.51000214
C    22.67999840  15.44000053  56.81999969
C    22.95999908  15.90999985  58.13000107
C    21.97000122  15.95000076  59.09000015
C    20.63999939  15.59000015  58.75000000
C    16.56999969  14.96999931  57.70999908
C    15.86999989  15.26000023  58.90999603
C    14.48999977  15.36999893  58.87000275
C    24.37999916  16.31999969  58.44999695
H    24.91557312  15.64160728  59.11410904
H    19.85000038  15.97000027  60.75000000
H    18.73999977  14.57999992  56.00000000
H    21.25999832  14.51000023  55.56999969
H    23.45999908  15.22999954  56.10000229
H    22.11000061  16.34000015  60.10000229
H    13.96000004  15.62000084  59.79000092
H    24.97999954  16.44000053  57.54000092
H    24.23000145  17.32999992  58.87000275
S    13.40999985  14.11000061  55.24000168
C    10.67000008  13.96000004  55.77999878
C    11.94000053  14.32000065  56.19999695
C    12.34000015  14.68000031  57.51999664
C    11.31999969  14.75000000  58.44999695
C    10.00000000  14.37999916  58.11999893
C     8.90999985  14.37999916  59.03999710
C     7.64999962  13.92000008  58.74000168
C     7.40999985  13.48999977  57.41000366
C     8.38999939  13.42000008  56.45000076
C     9.67000008  13.93000031  56.79000092
C    13.76000023  14.85999966  57.78999710
C    14.47000027  14.55000019  56.59999847
C    15.85999966  14.55999947  56.58000183
C     5.98999977  13.02999973  57.15000153
H     5.50802088  13.73879242  56.47664642
H    10.53999996  13.53999996  54.79000092
H    11.51000023  15.03999901  59.47999954
H     9.02999973  14.85000038  60.00999832
H     6.84000015  13.89999962  59.45999908
H     8.15999985  13.15999985  55.41999817
H    16.40999985  14.09000015  55.77000046
H     5.38000011  12.89000034  58.06000137
H     6.05999994  12.03999996  56.70000076
S    17.25000000  16.22999954  54.13000107
C    19.93000031  16.25000000  53.56999969
C    18.67000008  15.95000076  53.11000061
C    18.31999969  15.59000015  51.77000046
C    19.32999992  15.52999973  50.81999969
C    20.65999985  15.77000046  51.24000168
C    21.71999931  15.57999992  50.31000137
C    22.98999977  15.92000008  50.70000076
C    23.26000023  16.43000031  52.00000000
C    22.27999878  16.51000023  52.95999908
C    20.95000076  16.15999985  52.58999634
C    16.87000084  15.50000000  51.63999939
C    16.13999939  15.90999985  52.77999878
C    14.75999928  16.10999870  52.78999710
C    24.65999985  16.84000015  52.42000198
H    25.13736153  16.09902191  53.06123352
H    20.13999939  16.57999992  54.58000183
H    19.11999893  15.08999920  49.85000229
H    21.61999893  15.01000023  49.38999939
H    23.71999931  15.62999916  49.94999695
H    22.56000137  16.87000084  53.94000244
H    14.21000004  16.52000046  53.62999725
H    25.15000153  17.20999908  51.52000046
H    24.61000061  17.68000031  53.13000107
S    13.66000080  14.52999973  49.29999924
C    10.95000076  14.47000027  50.06999969
C    12.25000000  14.78999996  50.34999847
C    12.58999920  15.43000031  51.59000015
C    11.56000042  15.77999973  52.44999695
C    10.21000004  15.44999981  52.22000122
C     9.15000057  15.65000057  53.15000153
C     7.92000008  15.08999920  52.94000244
C     7.57000017  14.53999996  51.66999817
C     8.56000042  14.39000034  50.72000122
C     9.90999985  14.73000050  51.00000000
C    14.02999973  15.57000065  51.72999954
C    14.73999977  15.10000038  50.59000015
C    16.13000107  15.01999950  50.54999924
C     6.17999983  14.09999943  51.31000137
H     5.76615095  14.55666065  50.41095352
H    10.78999996  14.07999992  49.06999969
H    11.77000046  16.27000046  53.40000153
H     9.30000019  16.13000107  54.10999680
H     7.17999983  15.11000061  53.74000168
H     8.23999977  14.01000023  49.75000000
H    16.67000008  14.61999989  49.69999695
H     5.55999994  14.15999985  52.21000290
H     6.21000004  13.02000046  51.06999969
