96

S    17.05999947  15.52999973  60.38999939
C    19.77000046  15.53999996  59.66999817
C    18.48999977  15.13000011  59.40999985
C    18.17000008  14.50000000  58.16999817
C    19.14999962  14.27000046  57.22000122
C    20.50000000  14.55999947  57.51999664
C    21.51000023  14.61999989  56.52000046
C    22.79999924  15.01000023  56.83000183
C    23.12000084  15.57999992  58.09000015
C    22.11999893  15.69000053  59.02000046
C    20.81000137  15.17000008  58.77999878
C    16.72000122  14.44000053  58.04999924
C    15.95000076  14.93000031  59.13999939
C    14.56999969  15.08999920  59.23999786
C    24.44000053  16.25000000  58.39000320
H    25.11839485  15.58588791  58.92557526
H    19.96000099  16.31999969  60.40999985
H    18.86999893  14.04999924  56.19999695
H    21.25000000  14.39000034  55.48999786
H    23.48999977  15.19999981  56.00999832
H    22.34999847  16.35000038  59.86000061
H    14.07999992  15.47999954  60.13000107
H    25.00999832  16.55999947  57.50000000
H    24.30000114  17.17000008  58.95999908
S    13.50000000  13.85000038  55.65000153
C    10.73999977  14.09000015  56.17000198
C    12.03999996  14.25000000  56.58000183
C    12.38999939  14.73000050  57.88000107
C    11.35000038  14.93000031  58.77999878
C    10.01999950  14.59000015  58.43999863
C     8.90999985  14.80000019  59.31000137
C     7.60999966  14.52999973  58.95999908
C     7.30999994  13.88000011  57.74000168
C     8.34000015  13.73000050  56.84000015
C     9.67000008  14.15999985  57.11000061
C    13.82999992  14.81999969  58.09000015
C    14.56999969  14.30999947  56.98999786
C    15.93999958  14.09999943  56.93999863
C     5.88000011  13.48000050  57.45999908
H     5.38970661  14.06977367  56.68547821
H    10.52999973  13.64999962  55.20000076
H    11.54999924  15.31000042  59.78000259
H     9.02999973  15.14000034  60.33000183
H     6.77999973  14.65999985  59.65000153
H     8.27000046  13.35999966  55.81999969
H    16.32999992  13.83999920  55.94999695
H     5.27999973  13.61999989  58.36999893
H     5.75999975  12.41000080  57.25999832
S    13.57999992  11.92999935  52.47000122
C    10.93000031  11.43000031  53.18000031
C    12.27000046  11.16000080  53.37999725
C    12.76999950  10.55999947  54.58000183
C    11.85999966  10.29000092  55.59000015
C    10.46000004  10.44000053  55.40999985
C     9.48000050   9.98000050  56.32999802
C     8.14000034  10.18000031  56.07999802
C     7.69999981  10.85999966  54.92000198
C     8.63000011  11.40999985  54.06999969
C    10.01999950  11.10999966  54.22000122
C    14.22000027  10.60999966  54.66999817
C    14.80999947  11.36000061  53.61000061
C    16.14999962  11.71000004  53.57999802
C     6.21999979  11.13000011  54.72999954
H     5.82911968  10.75333405  53.78478241
H    10.60999966  12.02999973  52.34000397
H    12.25000000   9.81000042  56.47999573
H     9.94000053   9.47000027  57.16999817
H     7.42000008  10.05000019  56.88000107
H     8.34000015  12.11999989  53.29999924
H    16.48999977  12.34000015  52.76000214
H     5.79999971  10.53999996  55.54999924
H     6.01999998  12.18999958  54.92000198
S    17.43000031  10.29999924  57.11000061
C    20.09000015  11.02000046  56.51000214
C    18.76000023  11.00999928  56.18000031
C    18.35000038  11.61000061  54.93999863
C    19.27999878  12.18999958  54.09999847
C    20.66999817  12.07999992  54.34999847
C    21.65999985  12.63000011  53.48999786
C    23.00000000  12.46999931  53.76999664
C    23.39999962  11.84000015  54.98000336
C    22.46000099  11.38000011  55.87999725
C    21.05999947  11.51000023  55.59999847
C    16.93000031  11.39999962  54.69999695
C    16.32999992  10.67999935  55.77000046
C    15.01999950  10.22999954  55.76000214
C    24.84999847  11.49000072  55.20999908
H    25.17654800  12.04371452  56.09026337
H    20.36999893  10.65999985  57.50000000
H    18.89000130  12.69999981  53.22000122
H    21.28000069  13.05999947  52.56999969
H    23.75000000  12.86000061  53.09000015
H    22.77000046  11.03000069  56.86000061
H    14.56999969   9.68999958  56.58000183
H    25.53999901  11.75000000  54.40000153
H    24.96999931  10.39999962  55.31000137
