96

S    16.76000023  15.75000000  60.10000229
C    19.45000076  16.00000000  59.38000107
C    18.17000008  15.62000084  59.02999878
C    17.79999924  15.19999981  57.70999908
C    18.81999969  14.96999931  56.81000137
C    20.15999985  15.34000015  57.09000015
C    21.21000099  15.15999985  56.13999939
C    22.49000168  15.60999966  56.33999634
C    22.80999947  16.13000107  57.63000107
C    21.83000183  16.17000008  58.59000397
C    20.45000076  15.90999985  58.37999725
C    16.38000107  14.93999958  57.56999969
C    15.69000053  15.34000015  58.74000168
C    14.29999924  15.36999893  58.79000092
C    24.20000076  16.51000023  58.08000183
H    24.63331032  15.77834511  58.76192856
H    19.56999969  16.32999992  60.40999985
H    18.56999969  14.40999985  55.90999985
H    21.01000023  14.67000008  55.19000244
H    23.19000053  15.53999996  55.52000046
H    21.96000099  16.51000023  59.61999893
H    13.75000000  15.62000084  59.68999863
H    24.77000046  16.36000061  57.15999985
H    24.34999847  17.57999992  58.29000092
S    13.12000084  14.60000038  55.10000229
C    10.39999962  14.46000004  55.79000092
C    11.71000004  14.61999989  56.18000031
C    12.09000015  14.85999966  57.54000092
C    11.10999966  14.98999977  58.50999832
C     9.76000023  14.80000019  58.13000107
C     8.69999981  14.88000011  59.08000183
C     7.37999964  14.67000008  58.75000000
C     7.07000017  14.39000034  57.38999939
C     8.03999996  14.18000031  56.44000244
C     9.39000034  14.47999954  56.77999878
C    13.50999928  15.13000011  57.65999603
C    14.21000004  14.73000050  56.49000168
C    15.57999992  14.48999977  56.51000214
C     5.64000034  14.19000053  56.93999863
H     5.25063133  15.01121426  56.33824921
H    10.22999954  14.30999947  54.72999954
H    11.31999969  15.26000023  59.54999924
H     9.01000023  15.22999954  60.06000137
H     6.56000042  14.86999989  59.43000031
H     7.82000017  13.82999992  55.43000031
H    16.03999901  14.22000027  55.56000137
H     4.90999985  14.09000015  57.75000000
H     5.60999966  13.27999973  56.32999802
S    13.96999931  12.71999931  52.11999893
C    11.25000000  12.28999996  52.55000305
C    12.55000019  12.10000038  52.97999954
C    12.89999962  11.31999969  54.12000275
C    11.89000034  10.90999985  54.98000336
C    10.53999996  11.16000080  54.66999817
C     9.53999996  10.57000065  55.50000000
C     8.22000027  10.88000107  55.24000168
C     7.85000038  11.61999893  54.09000015
C     8.85000038  12.03999996  53.25000000
C    10.25000000  11.89000034  53.47000122
C    14.34000015  11.26000023  54.31999969
C    15.05000019  11.95000076  53.29999924
C    16.39999962  12.22000027  53.44999695
C     6.38000011  11.90999985  53.83999634
H     5.96121740  11.01565075  53.37862778
H    10.95999908  13.01000023  51.79000092
H    12.07999992  10.26000023  55.83000183
H     9.76000023   9.94000053  56.36000061
H     7.37999964  10.36999893  55.70000076
H     8.50000000  12.58999920  52.37999725
H    16.87999916  12.88000011  52.72999573
H     5.86000013  12.27000046  54.72999954
H     6.21999979  12.77999973  53.18999863
S    17.38000107  10.50000000  56.86999893
C    20.19000053  10.98000050  56.42000198
C    18.86000061  11.11999989  56.11000061
C    18.53999901  11.79999924  54.88999939
C    19.51000023  12.32999992  54.06999969
C    20.86999893  12.25000000  54.45999908
C    21.90999985  12.75000000  53.61000061
C    23.22999954  12.46000099  53.82999802
C    23.57999992  11.79999924  55.04000092
C    22.63000107  11.35000038  55.91999817
C    21.24000168  11.54999924  55.65999985
C    17.12000084  11.77000046  54.55999756
C    16.36000061  11.10000038  55.54999924
C    14.98000050  10.90000057  55.51000214
C    25.02000046  11.38000011  55.27000046
H    25.41261864  11.74406624  56.21942520
H    20.48000145  10.52999973  57.36999893
H    19.27000046  12.79999924  53.11999893
H    21.61999893  13.12999916  52.63999939
H    23.92000008  12.69000053  53.02999878
H    22.95999908  10.85999966  56.83000183
H    14.42999935  10.57999992  56.38999939
H    25.62000084  11.64000034  54.38999939
H    25.02000046  10.29000092  55.35999680
