96

S    16.95000076  16.42000008  60.11000061
C    19.70000076  16.32999992  59.47999954
C    18.38999939  16.13000107  59.10999680
C    18.15000153  15.54999924  57.83000183
C    19.17000008  15.32999992  56.93000031
C    20.52999878  15.52000046  57.29999924
C    21.61999893  15.17000008  56.45999908
C    22.92000008  15.43000031  56.83000183
C    23.15999985  16.01000023  58.09999847
C    22.13999939  16.28000069  58.99000168
C    20.78000069  16.03999901  58.61000061
C    16.73999977  15.18000031  57.77000046
C    15.95999908  15.72999954  58.81000137
C    14.57999992  15.85000038  58.94000244
C    24.57999992  16.21000099  58.55999756
H    24.82891083  15.67662144  59.47741318
H    19.88999939  16.80999947  60.44000244
H    18.82999992  15.14000034  55.90999985
H    21.37000084  14.82999992  55.45000076
H    23.75000000  15.14000034  56.18999863
H    22.30999947  16.61999893  60.00999832
H    14.13000011  16.29999924  59.81999969
H    25.26000023  15.80999947  57.78999710
H    24.77000046  17.27000046  58.75999832
S    13.57999992  14.42999935  55.34999847
C    10.85000038  14.70999908  55.90000153
C    12.15000057  14.96000099  56.25999832
C    12.43999958  15.62999916  57.49000168
C    11.38000011  15.86999989  58.34999847
C    10.05000019  15.46000004  58.06999969
C     9.01000023  15.55999947  59.03999710
C     7.76999998  15.03000069  58.81000137
C     7.48000050  14.42000008  57.56000137
C     8.46000004  14.34000015  56.59999847
C     9.76000023  14.88999939  56.77999878
C    13.86000061  15.48999977  57.78999710
C    14.60000038  14.98999977  56.69000244
C    15.97000027  14.73999977  56.69000244
C     6.11000013  13.83999920  57.29000092
H     5.57145357  14.48483849  56.59555817
H    10.82999992  14.15999985  54.95999908
H    11.56000042  16.17000008  59.38000107
H     9.31999969  16.02000046  59.98000336
H     6.91999960  15.07999992  59.48999786
H     8.18000031  13.73999977  55.72999954
H    16.46999931  14.37999916  55.79999924
H     5.38999987  13.78000069  58.11999893
H     6.25999975  12.84999943  56.84000015
S    13.36999989  12.01000023  52.16999817
C    10.64000034  11.75000000  52.80000305
C    11.96000004  11.52999973  53.13000107
C    12.38999939  10.98999977  54.38000107
C    11.44999981  10.67999935  55.34999847
C    10.08999920  10.86999989  55.00999832
C     9.13000011  10.44000053  55.97000122
C     7.78999996  10.64000034  55.72999954
C     7.34000015  11.09000015  54.45999908
C     8.23999977  11.39999962  53.47000122
C     9.63999939  11.39000034  53.74000168
C    13.83999920  11.03000069  54.58000183
C    14.51000023  11.61000061  53.47999954
C    15.80999947  12.10000038  53.48999786
C     5.86999989  11.36999989  54.22999954
H     5.45740509  10.89338207  53.34078598
H    10.27999973  12.10999966  51.84000015
H    11.67000008  10.01000023  56.17000198
H     9.35999966  10.01999950  56.95000076
H     7.11000013  10.50000000  56.56000137
H     7.82000017  11.68000031  52.50999832
H    16.10000038  12.69000053  52.63000107
H     5.25000000  11.18000031  55.11000061
H     5.69999981  12.44999981  54.15999985
S    17.04000092  10.90999985  57.08000183
C    19.78000069  11.23000050  56.35000229
C    18.44000053  11.44000053  56.11999893
C    17.97999954  12.00000000  54.87999725
C    18.93000031  12.51000023  54.00000000
C    20.29999924  12.42000008  54.31999969
C    21.25999832  12.94000053  53.40000153
C    22.60000038  12.89999962  53.72000122
C    23.06999969  12.25000000  54.89999771
C    22.17000008  11.69000053  55.77999878
C    20.78000069  11.76000023  55.50000000
C    16.55999947  11.80999947  54.62999725
C    15.92000008  11.18999958  55.72999954
C    14.59000015  10.77000046  55.72999954
C    24.50000000  11.84999943  55.14999771
H    24.96179199  12.38283539  55.98122406
H    20.22000122  10.65000057  57.15999985
H    18.51000023  13.01000023  53.13000107
H    20.86000061  13.35000038  52.48000336
H    23.29000092  13.34000015  53.02000046
H    22.57999802  11.10999966  56.59999847
H    14.07999992  10.44999981  56.63999939
H    25.06999969  12.13000107  54.26000214
H    24.60000038  10.76000023  55.28999710
