96

S    16.82999992  15.60999966  60.61000061
C    19.52999878  15.67000008  59.98000336
C    18.25000000  15.32999992  59.59000015
C    17.89999962  14.84000015  58.29000092
C    18.96000099  14.75999928  57.39999771
C    20.29999924  15.10000038  57.74000168
C    21.40000153  14.96000099  56.84000015
C    22.70000076  15.17000008  57.22000122
C    22.95999908  15.51000023  58.57999802
C    21.94999886  15.67000008  59.50000000
C    20.61000061  15.40999985  59.09999847
C    16.46000099  14.73999977  58.11999893
C    15.75000000  15.18000031  59.27000046
C    14.35999966  15.29000092  59.31000137
C    24.33000183  15.98000050  58.97999573
H    24.83301926  15.30694485  59.67430878
H    19.85999870  16.03999901  60.94999695
H    18.70000076  14.23999977  56.49000168
H    21.14999962  14.52999973  55.86999893
H    23.52999878  15.14000034  56.52000046
H    22.10000038  16.26000023  60.40000153
H    13.85000038  15.57000065  60.22999573
H    24.90999985  16.13000107  58.06000137
H    24.40999985  17.01000023  59.34999847
S    13.31999969  14.22000027  55.58000183
C    10.59999943  13.96000004  56.30000305
C    11.89000034  14.32000065  56.62000275
C    12.25000000  14.82999992  57.90999985
C    11.21000099  15.03999901  58.80000305
C     9.84000015  14.86999989  58.47999954
C     8.80000019  15.05000019  59.43999863
C     7.53000021  14.75000000  59.01000214
C     7.23000002  14.13000011  57.77999878
C     8.23000050  13.86000061  56.86999893
C     9.55000019  14.23999977  57.22000122
C    13.68000031  14.98999977  58.13000107
C    14.37999916  14.67000008  56.93999863
C    15.76000023  14.55999947  56.91999817
C     5.82999992  13.63000011  57.48000336
H     5.29398918  14.20174408  56.72243881
H    10.32999992  13.59000015  55.31999969
H    11.57999992  15.34999943  59.77000427
H     8.89000034  15.34000015  60.48999786
H     6.77999973  14.89999962  59.79000092
H     7.95000029  13.45000076  55.90000153
H    16.17000008  14.51000023  55.91999817
H     5.29999971  13.53000069  58.43999863
H     5.91000032  12.58999920  57.11999893
S    17.02000046  16.00000000  54.09000015
C    19.75000000  16.23999977  53.44999695
C    18.45999908  15.97000027  53.04999924
C    18.11000061  15.69000053  51.69000244
C    19.11999893  15.62000084  50.76000214
C    20.43999863  15.97000027  51.11999893
C    21.55999947  15.67000008  50.28999710
C    22.85000038  16.00000000  50.63000107
C    23.12999916  16.45000076  51.95000076
C    22.13000107  16.53000069  52.88999939
C    20.79000092  16.28000069  52.48000336
C    16.67000008  15.57999992  51.51000214
C    15.93999958  15.86999989  52.69000244
C    14.55999947  16.03999901  52.77999878
C    24.56000137  16.69999886  52.35000229
H    24.91514397  16.05364227  53.15262222
H    19.80999947  16.72000122  54.41999817
H    18.89999962  15.05000019  49.86000061
H    21.42000008  15.13000011  49.36000061
H    23.67000198  15.82999992  49.93999863
H    22.30999947  16.84000015  53.92000198
H    14.06999969  16.25000000  53.72000122
H    25.03000069  16.46000099  51.38999939
H    24.69000053  17.76000023  52.61000061
S    13.43000031  14.85000038  49.09000015
C    10.78999996  14.72000027  49.79999924
C    12.05999947  15.06000042  50.20999908
C    12.44999981  15.52999973  51.50000000
C    11.46999931  15.46000004  52.47000122
C    10.13000011  15.15999985  52.14000320
C     9.07999992  15.00000000  53.09000015
C     7.76000023  14.88000011  52.70999908
C     7.44999981  14.50000000  51.38000107
C     8.46000004  14.44000053  50.44000244
C     9.77999973  14.84000015  50.77999878
C    13.89000034  15.73999977  51.59000015
C    14.52999973  15.29000092  50.40000153
C    15.92000008  15.19000053  50.38999939
C     6.01000023  14.25000000  51.00999832
H     5.62631702  14.72605133  50.10763168
H    10.62000084  14.34000015  48.80000305
H    11.72999954  15.73999977  53.48999786
H     9.26999950  15.38000011  54.09000015
H     7.00000000  15.05000019  53.47000122
H     8.21000004  14.07999992  49.43999863
H    16.52000046  14.75999928  49.59000015
H     5.32000017  14.44000053  51.84000015
H     5.75999975  13.19000053  50.86000061
