96

S    16.42000008  15.60999966  60.25000000
C    19.11000061  15.62999916  59.54999924
C    17.82999992  15.26999950  59.22000122
C    17.47999954  14.82999992  57.90999985
C    18.51000023  14.51000023  57.04000092
C    19.85000038  14.85000038  57.35000229
C    20.84000015  14.86999989  56.32999802
C    22.14999962  15.14999962  56.63000107
C    22.50000000  15.59999943  57.93000031
C    21.51000023  15.80999947  58.86000061
C    20.17000008  15.36999893  58.64999771
C    16.03000069  14.70000076  57.84000015
C    15.29999924  15.11999989  58.96999741
C    13.90999985  15.17000008  59.02000046
C    23.85999870  16.18000031  58.26000214
H    24.32259750  15.63911533  59.08555984
H    19.32999992  16.10999870  60.51000214
H    18.23999977  14.28999996  56.00999832
H    20.52000046  14.55999947  55.34000015
H    22.86000061  15.25000000  55.80999756
H    21.63000107  16.27000046  59.84000397
H    13.35999966  15.54999924  59.87999725
H    24.44999886  16.10000038  57.34000397
H    23.75000000  17.25000000  58.50000000
S    12.84000015  13.97999954  55.34000015
C    10.14000034  14.18000031  55.93999863
C    11.44000053  14.23999977  56.38999939
C    11.77999973  14.56999969  57.75000000
C    10.73999977  14.80000019  58.62999725
C     9.40999985  14.59000015  58.20000076
C     8.34999943  14.80999947  59.13000107
C     7.07000017  14.47999954  58.77999878
C     6.76999998  13.89000034  57.51999664
C     7.73999977  13.76999950  56.55000305
C     9.06000042  14.19999981  56.86000061
C    13.22000027  14.72000027  57.88999939
C    13.90999985  14.35999966  56.70000076
C    15.29999924  14.27999973  56.72000122
C     5.35000038  13.40999985  57.34000397
H     4.95434618  14.08826447  56.58401871
H     9.94000053  13.97999954  54.88999939
H    10.97000027  15.08999920  59.65999985
H     8.57999992  15.03999901  60.17000198
H     6.26999950  14.48999977  59.52000046
H     7.50999975  13.26000023  55.61000061
H    15.80000019  14.01999950  55.79999924
H     4.82999992  13.42000008  58.29999924
H     5.36999989  12.35999966  57.02999878
S    16.88999939  16.06999969  54.05000305
C    19.57999992  16.14999962  53.37999725
C    18.30000114  15.80999947  53.00000000
C    18.01000023  15.43000031  51.65000153
C    18.96000099  15.31000042  50.65000153
C    20.28000069  15.54999924  51.07999802
C    21.40999985  15.29999924  50.25000000
C    22.70000076  15.52000046  50.70000076
C    22.96999931  16.02000046  52.00000000
C    21.93000031  16.25000000  52.87000275
C    20.62000084  15.90000057  52.43999863
C    16.55999947  15.32999992  51.52999878
C    15.82999992  15.65000057  52.70000076
C    14.44000053  15.72000027  52.72999573
C    24.36000061  16.45000076  52.38999939
H    24.68734360  15.77396774  53.17988968
H    19.89999962  16.55999947  54.33000183
H    18.75000000  15.21999931  49.59000015
H    21.19999886  15.01999950  49.22999954
H    23.44000053  15.40999985  49.92000198
H    22.07999992  16.59000015  53.88999939
H    13.89000034  15.90999985  53.63999939
H    25.07999802  16.39999962  51.56000137
H    24.43000031  17.50000000  52.71999741
S    13.30000019  14.81999969  49.06000137
C    10.57000065  14.80999947  49.79000092
C    11.89000034  14.93999958  50.13000107
C    12.30000019  15.36000061  51.44000244
C    11.31000042  15.60999966  52.37999725
C     9.94000053  15.39000034  52.05999756
C     8.92000008  15.62999916  53.02000046
C     7.64999962  15.18000031  52.76000214
C     7.30000019  14.51000023  51.56000137
C     8.23000050  14.37000084  50.56999969
C     9.53999996  14.88999939  50.77000046
C    13.75000000  15.40999985  51.55000305
C    14.47000027  15.19000053  50.34999847
C    15.85999966  15.14999962  50.34000015
C     5.89999962  13.94000053  51.45000076
H     5.37294626  14.41719723  50.62380600
H    10.34999943  14.17000008  48.94000244
H    11.56999969  15.85000038  53.40000153
H     9.06999969  16.01000023  54.02999878
H     6.98000002  15.15999985  53.61999893
H     7.92999983  13.81999969  49.68000031
H    16.42000008  14.73000050  49.51000214
H     5.47999954  14.06000042  52.45999908
H     5.96000004  12.84000015  51.37000275
