96

S    16.77000046  15.71000004  60.34999847
C    19.44000053  15.73999977  59.66999817
C    18.15999985  15.44000053  59.27000046
C    17.80999947  14.88000011  58.00000000
C    18.85000038  14.61999989  57.12999725
C    20.20000076  14.84000015  57.48000336
C    21.24000168  14.45000076  56.58000183
C    22.55000114  14.65000057  56.93000031
C    22.86000061  15.21999931  58.20000076
C    21.87000084  15.57000065  59.08000183
C    20.48999977  15.46000004  58.75000000
C    16.36000061  14.75999928  57.88999939
C    15.67999935  15.25000000  59.02999878
C    14.29999924  15.32999992  59.15000153
C    24.25000000  15.78999996  58.34999847
H    24.78180885  15.35037136  59.19380188
H    19.63999939  16.10999870  60.66999817
H    18.56999969  14.07999992  56.22000122
H    20.92000008  14.09999943  55.59999847
H    23.21000099  14.46000004  56.09000397
H    22.06999969  15.93999958  60.07999802
H    13.76000023  15.77999973  59.98000336
H    24.84999847  15.70000076  57.43000031
H    24.13999939  16.87000084  58.47000122
S    13.09000015  14.04999924  55.56999969
C    10.36000061  14.13000011  56.29000092
C    11.68000031  14.44000053  56.56000137
C    12.07999992  14.96000099  57.83000183
C    11.10999966  15.25000000  58.76999664
C     9.73999977  15.06999969  58.47000122
C     8.73999977  15.24000072  59.47000122
C     7.42999983  14.86999989  59.31999969
C     6.98999977  14.34999943  58.06999969
C     7.96000004  14.17000008  57.11000061
C     9.35999966  14.44000053  57.22999954
C    13.52000046  14.94999981  58.04999924
C    14.19999981  14.51000023  56.88000107
C    15.57999992  14.35999966  56.79999924
C     5.56999969  13.93000031  57.76000214
H     5.17012215  14.26561165  56.80315018
H    10.01000023  13.60000038  55.40999985
H    11.36000061  15.50000000  59.79999924
H     9.07999992  15.55999947  60.45000076
H     6.83000040  14.65999985  60.20000076
H     7.72000027  13.53999996  56.25000000
H    15.92000008  13.81000042  55.93999863
H     5.01999950  14.47000027  58.54000092
H     5.28999996  12.86999893  57.81999969
S    13.22999954  12.09000015  52.51999664
C    10.53999996  11.68000031  53.09999847
C    11.84999943  11.52999973  53.48999786
C    12.25999928  10.97000027  54.73999786
C    11.30000019  10.59999943  55.65000153
C     9.94000053  10.85000038  55.35999680
C     8.85000038  10.29999924  56.11000061
C     7.55000019  10.57999992  55.77999878
C     7.20000029  11.36999989  54.65000153
C     8.19999981  11.61999893  53.74000168
C     9.56999969  11.39999962  54.09000015
C    13.71999931  10.95000076  54.79000092
C    14.42000008  11.59999943  53.75000000
C    15.78999996  11.76000023  53.81999969
C     5.75000000  11.57999992  54.27999878
H     5.33782625  10.93331337  53.50539780
H    10.21999931  11.92999935  52.09000015
H    11.46000004  10.11999989  56.62000275
H     8.97000027   9.77000046  57.04999924
H     6.80000019  10.07999992  56.38000107
H     8.05999947  11.85999966  52.69000244
H    16.23999977  12.17000008  52.91999817
H     5.10999966  11.46999931  55.15999603
H     5.58000040  12.60000038  53.92000198
S    16.90000153  10.31999969  57.36000061
C    19.65999985  10.54999924  56.70999908
C    18.32999992  10.78999996  56.42000198
C    17.94000053  11.39999962  55.19000244
C    18.89000130  11.90000057  54.31000137
C    20.25000000  11.57999992  54.54999924
C    21.18999863  12.18999958  53.67000198
C    22.53999901  12.10000038  53.94000244
C    22.96999931  11.30000019  55.02999878
C    22.04999924  10.77999973  55.91999817
C    20.65000153  10.95000076  55.77999878
C    16.50000000  11.44000053  54.99000168
C    15.80000019  10.80000019  56.04999924
C    14.45000076  10.51000023  55.90000153
C    24.38999939  10.80999947  55.24000168
H    24.78287125  11.15286922  56.19718170
H    19.93999863  10.06000042  57.63000107
H    18.68999863  12.46999931  53.40999985
H    20.86000061  12.69999981  52.77000046
H    23.36000061  12.56999969  53.40999985
H    22.36000061  10.21000004  56.79000092
H    13.96000004  10.03999901  56.75000000
H    25.00999832  11.28000069  54.47000122
H    24.40000153   9.71000004  55.21999741
