96

S    16.13999939  16.07999992  60.19000244
C    18.79999924  16.32999992  59.29000092
C    17.52000046  15.85000038  59.09999847
C    17.18000031  15.13000011  57.90999985
C    18.19000053  14.78999996  57.02999878
C    19.52999878  15.19999981  57.22999954
C    20.58000183  14.85999966  56.31999969
C    21.87999916  15.22999954  56.55000305
C    22.13000107  16.01000023  57.70000076
C    21.18000031  16.39000130  58.62999725
C    19.82999992  16.03999901  58.36000061
C    15.72999954  15.03000069  57.84000015
C    15.01000023  15.47000027  58.97999573
C    13.61999989  15.57999992  59.01000214
C    23.55999947  16.40999985  58.00000000
H    24.01502609  15.78434086  58.76785660
H    19.00000000  16.70999908  60.27999878
H    17.94999886  14.07999992  56.24000168
H    20.15999985  14.55999947  55.35999680
H    22.60000038  15.03999901  55.76000214
H    21.45000076  16.95999908  59.51000214
H    13.07999992  16.15999985  59.75999832
H    24.20000076  16.32999992  57.11000061
H    23.57000160  17.46000099  58.31999969
S    12.51000023  14.34000015  55.38999939
C     9.86999989  14.18000031  56.05999756
C    11.11999989  14.63000107  56.44000244
C    11.40999985  15.01000023  57.78999710
C    10.34000015  15.22999954  58.63999939
C     9.03999996  14.85999966  58.25000000
C     7.90999985  14.98000050  59.12000275
C     6.63999987  14.73000050  58.64999771
C     6.34999990  14.34999943  57.30999756
C     7.44000006  14.02999973  56.52999878
C     8.76999950  14.30999947  56.95000076
C    12.86000061  15.06000042  57.95000076
C    13.53999996  14.59000015  56.81000137
C    14.93000031  14.47999954  56.83000183
C     4.92999983  14.14000034  56.84000015
H     4.52438021  15.00816822  56.32052231
H     9.76000023  13.69999981  55.10000229
H    10.52000046  15.47999954  59.68999863
H     8.01000023  15.40999985  60.11000061
H     5.84000015  14.93999958  59.34999847
H     7.32999992  13.55999947  55.56000137
H    15.47999954  14.07999992  55.97999954
H     4.32999992  13.99000072  57.74000168
H     4.88999987  13.27999973  56.17000198
S    13.38999939  12.55000019  52.28000259
C    10.78999996  11.77000046  52.81999969
C    12.11999989  11.67000008  53.15000153
C    12.53000069  11.13000011  54.40999985
C    11.67000008  10.47999954  55.27999878
C    10.31000042  10.48999977  54.89999771
C     9.35999966   9.88000011  55.77000046
C     8.02999973   9.98999977  55.47000122
C     7.57999992  10.70000076  54.31999969
C     8.47000027  11.26000023  53.44999695
C     9.85999966  11.23999977  53.75000000
C    13.94000053  11.43000031  54.61000061
C    14.53999996  12.22000027  53.60000229
C    15.90000057  12.51999950  53.60000229
C     6.12999964  10.95999908  53.99000168
H     5.69529438  10.21173668  53.32725525
H    10.46000004  12.27000046  51.90999985
H    11.97000027   9.98999977  56.19999695
H     9.64999962   9.40999985  56.70999908
H     7.26000023   9.64999962  56.16000366
H     8.18000031  11.72000027  52.50000000
H    16.28999901  13.01000023  52.71999741
H     5.58000040  11.05000019  54.93999863
H     6.06999969  11.96000004  53.54000092
S    17.27000046  10.75000000  56.90000153
C    19.95000076  11.25000000  56.20999908
C    18.60999870  11.31000042  55.87999725
C    18.12999916  11.89000034  54.65999985
C    19.04999924  12.43999958  53.79000092
C    20.43000031  12.32999992  54.08000183
C    21.42999840  12.97000027  53.27999878
C    22.78000069  12.82999992  53.47999954
C    23.21000099  12.30000019  54.72000122
C    22.29999924  11.75000000  55.59000015
C    20.92000008  11.69000053  55.27000046
C    16.67000008  11.92999935  54.61000061
C    16.05999947  11.26000023  55.70000076
C    14.70000076  10.98000050  55.70000076
C    24.65999985  12.43999958  55.13999939
H    24.86635017  12.04864597  56.13617325
H    20.32999992  10.98000050  57.18999863
H    18.72999954  13.05999947  52.95999908
H    21.09000015  13.68999958  52.54000092
H    23.44000053  13.26000023  52.72999573
H    22.49000168  11.46000004  56.62000275
H    14.22000027  10.39999962  56.47999573
H    25.03999901  13.47000027  55.17000198
H    25.36000061  11.87999916  54.51000214
