96

S    16.39000130  15.67999935  60.40000153
C    19.09000015  15.72999954  59.65999985
C    17.80999947  15.26999950  59.43000031
C    17.40999985  14.63000107  58.20999908
C    18.39999962  14.40000057  57.28000259
C    19.75000000  14.77000046  57.47000122
C    20.76999855  14.55999947  56.49000168
C    22.01999855  15.08999920  56.68000031
C    22.32999992  15.77999973  57.88000107
C    21.42000008  15.90999985  58.89999771
C    20.06999969  15.52999973  58.64999771
C    15.97000027  14.65999985  58.00000000
C    15.26999950  15.07999992  59.15999985
C    13.88000011  15.15999985  59.20999908
C    23.78999901  16.05999947  58.15999985
H    24.25805092  15.26572895  58.74151611
H    19.37999916  16.21999931  60.58000183
H    18.09000015  13.99000072  56.31999969
H    20.42000008  14.11999893  55.56000137
H    22.76000023  14.86999989  55.91999817
H    21.64999962  16.22999954  59.91000366
H    13.32999992  15.51000023  60.07999802
H    24.34000015  16.42000008  57.28000259
H    23.71999931  16.97000122  58.77999878
S    12.81999969  13.89000034  55.56000137
C    10.13000011  13.75000000  56.25000000
C    11.39999962  14.14999962  56.59999847
C    11.72000027  14.60999966  57.91999817
C    10.70000076  14.73999977  58.83999634
C     9.38000011  14.32999992  58.54000092
C     8.27000046  14.44000053  59.41999817
C     7.00999975  14.01999950  59.03999710
C     6.80000019  13.45000076  57.76000214
C     7.82999992  13.27000046  56.86999893
C     9.11000061  13.76999950  57.23999786
C    13.15999985  14.75000000  58.08000183
C    13.86999989  14.34999943  56.91999817
C    15.25000000  14.28999996  56.86000061
C     5.40999985  13.02999973  57.32999802
H     4.97529459  13.69274712  56.58173370
H    10.05000019  13.14000034  55.34999847
H    11.10999966  15.08999920  59.79000092
H     8.30000019  14.98999977  60.34999847
H     6.24000025  14.02999973  59.80999756
H     7.73000002  12.76000023  55.91999817
H    15.72000027  13.89000034  55.96000290
H     4.78999996  13.19000053  58.22000122
H     5.26999998  11.98999977  57.01000214
S    16.80999947  15.67000008  54.29999924
C    19.54000092  15.93999958  53.55999756
C    18.23999977  15.62999916  53.23999786
C    17.90999985  15.13000011  51.95000076
C    18.89000130  15.00000000  50.97999954
C    20.22000122  15.42000008  51.20999908
C    21.32999802  15.13000011  50.37000275
C    22.60000038  15.59000015  50.61000061
C    22.85000038  16.26000023  51.84000015
C    21.84000015  16.39000130  52.76000214
C    20.51000214  15.95000076  52.51999664
C    16.47999954  15.21999931  51.66999817
C    15.77999973  15.52000046  52.87000275
C    14.40999985  15.72999954  52.85999680
C    24.25000000  16.63999939  52.29000092
H    24.76378822  16.01203728  53.01786423
H    19.84000015  16.36000061  54.51000214
H    18.63999939  14.42000008  50.08999634
H    21.18999863  14.50000000  49.50000000
H    23.45000076  15.19000053  50.05000305
H    22.20000076  16.67000008  53.75000000
H    13.94999981  15.97000027  53.81999969
H    24.72999954  16.92000008  51.33999634
H    23.98999977  17.59000015  52.77999878
S    13.25000000  14.65999985  49.20000076
C    10.55999947  14.27000046  50.10000229
C    11.84999943  14.70000076  50.27999878
C    12.20999908  15.19999981  51.58000183
C    11.26000023  15.50000000  52.54000092
C     9.94000053  15.00000000  52.36000061
C     8.93999958  15.08999920  53.36999893
C     7.62000036  14.78000069  53.13000107
C     7.23999977  14.17000008  51.90999985
C     8.22000027  13.94999981  50.97000122
C     9.55999947  14.40999985  51.11000061
C    13.64999962  15.32999992  51.76000214
C    14.32999992  15.10000038  50.54000092
C    15.72000027  15.07999992  50.50000000
C     5.86000013  13.60999966  51.63000107
H     5.50305843  14.20252323  50.78761673
H    10.29999924  13.86999989  49.13000107
H    11.69999981  15.84000015  53.47000122
H     9.19999981  15.55999947  54.31999969
H     6.85999966  14.89999962  53.89999771
H     7.97999954  13.35999966  50.08999634
H    16.20000076  14.75999928  49.59000015
H     5.14999962  13.63999939  52.47000122
H     5.84000015  12.57999992  51.23000336
