96

S    16.68000031  15.59999943  60.35999680
C    19.36000061  15.60999966  59.66999817
C    18.06999969  15.26999950  59.31000137
C    17.65999985  14.73999977  58.04999924
C    18.67000008  14.52999973  57.12999725
C    20.02000046  14.89999962  57.36999893
C    21.09000015  14.80000019  56.44000244
C    22.36999893  15.05000019  56.86999893
C    22.63999939  15.59000015  58.15000153
C    21.65999985  15.73999977  59.10999680
C    20.36000061  15.36000061  58.68999863
C    16.21000099  14.63999939  57.93000031
C    15.54999924  15.06999969  59.10999680
C    14.18000031  15.29000092  59.26000214
C    24.04000092  16.09000015  58.44999695
H    24.49478340  15.50020313  59.24586868
H    19.68000031  16.06999969  60.59999847
H    18.35000038  14.04000092  56.22000122
H    20.89999962  14.48999977  55.41999817
H    23.21000099  14.85000038  56.20999908
H    21.80000114  16.36000061  59.99000168
H    13.76999950  15.73999977  60.15999603
H    24.61000061  16.05999947  57.50999832
H    24.03000069  17.13999939  58.75000000
S    12.93000031  14.13000011  55.65999985
C    10.22999954  14.37999916  56.36000061
C    11.56000042  14.53999996  56.70999908
C    11.92999935  14.98999977  58.02000046
C    10.93999958  15.17000008  58.95999908
C     9.57999992  14.92000008  58.66000366
C     8.52999973  14.93999958  59.61999893
C     7.25000000  14.72000027  59.20999908
C     6.84999990  14.27999973  57.90999985
C     7.86000013  14.25000000  56.97000122
C     9.21000004  14.47999954  57.34000397
C    13.38000107  14.96999931  58.15999985
C    14.04000092  14.50000000  56.98999786
C    15.39999962  14.32000065  56.83000183
C     5.44000053  13.85000038  57.56999969
H     5.00483847  14.42070389  56.74961472
H     9.92000008  14.01999950  55.38000107
H    11.23000050  15.19999981  60.00999832
H     8.76000023  15.31000042  60.61999893
H     6.54999971  14.55000019  60.02999878
H     7.67000008  13.82999992  55.98999786
H    15.77000046  13.89000034  55.90000153
H     4.77999973  14.04000092  58.41999817
H     5.46000004  12.76000023  57.41000366
S    17.19000053  15.76000023  54.29000092
C    19.85999870  16.05999947  53.46000290
C    18.55999947  15.69000053  53.16999817
C    18.20000076  15.13000011  51.90000153
C    19.18000031  15.00000000  50.93000031
C    20.52000046  15.29999924  51.24000168
C    21.50000000  15.15999985  50.21999741
C    22.82999992  15.44999981  50.44000244
C    23.21000099  15.86999989  51.73999786
C    22.26000023  16.22999954  52.68000031
C    20.89999962  15.85999966  52.50999832
C    16.76000023  15.03000069  51.79000092
C    16.06999969  15.32999992  52.98999786
C    14.68000031  15.39999962  53.02999878
C    24.56999969  16.47999954  52.00000000
H    25.06708145  15.90480518  52.78112793
H    19.97999954  16.68000031  54.34000015
H    19.11999893  14.55000019  49.93999863
H    21.02000046  15.15999985  49.25000000
H    23.47999954  15.72000027  49.61000061
H    22.56999969  16.82999992  53.53000259
H    14.18000031  15.73999977  53.93000031
H    25.20000076  16.42000008  51.10000229
H    24.38999939  17.53000069  52.25000000
S    13.52000046  14.47999954  49.29999924
C    10.81999969  14.61999989  49.88999939
C    12.10999966  14.89999962  50.27999878
C    12.51000023  15.32999992  51.59000015
C    11.46999931  15.54999924  52.48000336
C    10.10000038  15.44000053  52.14000320
C     9.02999973  15.55999947  53.08000183
C     7.71000004  15.34000015  52.77999878
C     7.40000010  14.72000027  51.53999710
C     8.42000008  14.67000008  50.61999893
C     9.80000019  14.96000099  50.81999969
C    13.94000053  15.24000072  51.84999847
C    14.60000038  14.85999966  50.65999985
C    15.98999977  14.77000046  50.63999939
C     6.01999998  14.19000053  51.22000122
H     5.53048754  14.80011749  50.46089935
H    10.57999992  14.27999973  48.88999939
H    11.68000031  15.59999943  53.54999924
H     9.19999981  15.80999947  54.12000275
H     6.93000031  15.67999935  53.44999695
H     8.23999977  14.27000046  49.62999725
H    16.39000130  14.39000034  49.71000290
H     5.50000000  14.32999992  52.16999817
H     6.02999973  13.12000084  50.97000122
