96

S    16.68000031  15.67999935  60.28999710
C    19.40000153  15.60999966  59.64000320
C    18.11000061  15.26999950  59.31999969
C    17.72999954  14.75999928  58.04000092
C    18.72999954  14.55999947  57.09999847
C    20.06999969  14.91000080  57.38999939
C    21.15999985  14.67000008  56.49000168
C    22.43999863  15.07999992  56.73999786
C    22.75000000  15.65000057  58.00000000
C    21.77999878  15.77999973  58.96999741
C    20.43999863  15.43000031  58.68000031
C    16.31000137  14.88999939  57.77000046
C    15.59999943  15.29000092  58.93000031
C    14.22000027  15.39999962  58.90999603
C    24.18999863  16.01000023  58.29000092
H    24.72550392  15.32455349  58.94688416
H    19.63999939  15.95999908  60.63999939
H    18.46999931  14.06000042  56.18000031
H    20.90999985  14.22999954  55.52999878
H    23.16999817  14.88000011  55.96000290
H    21.96000099  16.20000076  59.95999908
H    13.69999981  15.55999947  59.85000229
H    24.67000008  16.10999870  57.30999756
H    24.27000046  17.02000046  58.72000122
S    13.15999985  14.27999973  55.19000244
C    10.47000027  14.02999973  55.94999695
C    11.75000000  14.44000053  56.25000000
C    12.13000107  14.93999958  57.54000092
C    11.13999939  15.17000008  58.47999954
C     9.80000019  14.85000038  58.16999817
C     8.75000000  15.01000023  59.12000275
C     7.44000006  14.70999908  58.81999969
C     7.07999992  14.19999981  57.54000092
C     8.09000015  13.97999954  56.62000275
C     9.46000004  14.19999981  56.93000031
C    13.56999969  15.06999969  57.70999908
C    14.25000000  14.67000008  56.52999878
C    15.62999916  14.55000019  56.59000015
C     5.63000011  13.81000042  57.38999939
H     5.09642649  14.57123184  56.82085419
H    10.26999950  13.78999901  54.91000366
H    11.39999962  15.54999924  59.45999908
H     9.13000011  15.39999962  60.06000137
H     6.71000004  14.82999992  59.61000061
H     7.79999971  13.57999992  55.65999985
H    16.13999939  14.09000015  55.75000000
H     5.15999985  13.71999931  58.36999893
H     5.71000004  12.86999893  56.81999969
S    13.71999931  12.32999992  52.31999969
C    11.00000000  11.63000011  52.78999710
C    12.34000015  11.56000042  53.13000107
C    12.77999973  10.95000076  54.34999847
C    11.84000015  10.42000008  55.20999908
C    10.46000004  10.55999947  54.91000366
C     9.51000023  10.10000038  55.86999893
C     8.17000008  10.34000015  55.70000076
C     7.72000027  10.95000076  54.48999786
C     8.60999966  11.33999920  53.52000427
C    10.01000023  11.18999958  53.69999695
C    14.19999981  11.07999992  54.61999893
C    14.85000038  11.75000000  53.55999756
C    16.21000099  12.03999996  53.56999969
C     6.24000025  11.23000050  54.34000015
H     5.79050398  10.89466190  53.40533447
H    10.57000065  12.15999985  51.93999863
H    12.15000057   9.96999931  56.14999771
H     9.88000011   9.77000046  56.84000015
H     7.48000050  10.03000069  56.47999573
H     8.23999977  12.01000023  52.74000168
H    16.69999886  12.63000011  52.80000305
H     5.73000002  10.77999973  55.20000076
H     6.09000015  12.30999947  54.47000122
S    17.45000076  10.48999977  57.01000214
C    20.13999939  10.80999947  56.38000107
C    18.82999992  11.06999969  56.05999756
C    18.45000076  11.77999973  54.87999725
C    19.47000122  12.25000000  54.06999969
C    20.81999969  11.90000057  54.29999924
C    21.84999847  12.39999962  53.44999695
C    23.18000031  12.20000076  53.75999832
C    23.50000000  11.54999924  54.98000336
C    22.56000137  11.06999969  55.86000061
C    21.18999863  11.25000000  55.52999878
C    17.02999878  11.57999992  54.61000061
C    16.35000038  11.05000019  55.72999954
C    14.98000050  10.78999996  55.75000000
C    24.94999886  11.23999977  55.28999710
H    25.32120895  11.68973637  56.21088791
H    20.34000015  10.11000061  57.18000031
H    19.17000008  12.74000072  53.15000153
H    21.61000061  13.02999973  52.58999634
H    23.94000053  12.71999931  53.18999863
H    22.89999962  10.72999954  56.84000015
H    14.40000057  10.34000015  56.55000305
H    25.51000214  11.65999985  54.45000076
H    24.93000031  10.14999962  55.40000153
