96

S    16.77000046  15.88000107  60.07999802
C    19.44000053  16.14999962  59.31000137
C    18.15999985  15.77999973  58.97999573
C    17.81999969  15.17000008  57.72999573
C    18.78000069  15.01999950  56.73999786
C    20.10999870  15.36999893  57.08000183
C    21.22999954  15.18000031  56.22000122
C    22.52000046  15.47000027  56.59999847
C    22.85000038  16.00000000  57.87000275
C    21.80999947  16.11999893  58.77999878
C    20.46999931  15.85000038  58.37999725
C    16.38000107  14.94999981  57.63000107
C    15.71000004  15.15999985  58.86000061
C    14.32000065  15.15999985  58.93000031
C    24.30999947  16.23999977  58.18999863
H    24.72939491  15.50072575  58.87240601
H    19.71999931  16.56999969  60.27999878
H    18.45999908  14.55999947  55.80999756
H    21.04000092  14.78999996  55.21999741
H    23.31999969  15.26000023  55.89000320
H    22.01999855  16.39999962  59.80999756
H    13.80000019  15.40999985  59.85000229
H    24.93000031  16.20000076  57.29000092
H    24.43000031  17.23999977  58.61999893
S    13.15999985  14.06999969  55.22999573
C    10.44999981  13.90999985  56.04000092
C    11.76000023  14.23999977  56.30000305
C    12.13999939  14.85000038  57.54000092
C    11.16000080  15.34000015  58.36999893
C     9.80000019  15.01999950  58.13000107
C     8.85000038  15.21000004  59.18000031
C     7.59999990  14.61999989  59.13000107
C     7.23999977  13.88000011  57.97999954
C     8.14000034  13.66000080  56.95000076
C     9.44000053  14.25000000  56.97999954
C    13.57999992  14.81999969  57.78999710
C    14.23999977  14.52000046  56.56999969
C    15.62999916  14.52999973  56.52999878
C     5.88000011  13.30999947  57.68000031
H     5.38881969  13.80117989  56.84001160
H    10.26999950  13.26000023  55.19000244
H    11.51000023  15.65000057  59.34999847
H     9.11999989  15.72999954  60.08999634
H     6.96000004  14.96000099  59.93000031
H     7.95000029  13.12999916  56.02000427
H    16.13999939  14.19000053  55.63999939
H     5.26000023  13.50000000  58.56999969
H     6.00000000  12.22000027  57.64999771
S    13.73999977  12.17000008  52.54000092
C    11.09000015  11.47999954  53.20000076
C    12.43000031  11.51000023  53.53000259
C    12.97000027  10.88999939  54.69999695
C    12.05000019  10.26999950  55.52000046
C    10.65000057  10.31000042  55.31000137
C     9.70000076   9.92999935  56.30000305
C     8.36000061   9.94999981  56.02000427
C     7.86999989  10.36999893  54.75000000
C     8.76000023  10.85000038  53.81000137
C    10.14999962  10.86999989  54.08000183
C    14.42000008  10.98000050  54.84000397
C    14.96000099  11.64999962  53.70999908
C    16.28999901  12.05999947  53.81999969
C     6.38000011  10.47999954  54.54000092
H     6.08008575  10.16580296  53.54028320
H    10.62000084  12.02999973  52.38999939
H    12.41000080   9.98999977  56.51000214
H    10.10000038   9.55000019  57.23999786
H     7.71000004   9.61999989  56.83000183
H     8.43000031  11.36999989  52.90999985
H    16.81999969  12.51999950  53.00000000
H     5.84000015   9.92999935  55.31999969
H     6.17999983  11.54000092  54.75999832
S    17.70000076  10.65999985  57.25999832
C    20.38000107  11.11999989  56.42000198
C    19.03000069  11.21999931  56.22000122
C    18.43000031  11.89000034  55.10000229
C    19.26000023  12.39999962  54.12000275
C    20.66999817  12.30000019  54.23999786
C    21.59000015  12.84999943  53.29999924
C    22.93999863  12.97000027  53.52000427
C    23.45999908  12.46000099  54.73999786
C    22.62000084  11.82000065  55.61999893
C    21.21999931  11.69999981  55.43000031
C    16.97999954  11.79999924  55.00999832
C    16.43000031  11.10000038  56.11000061
C    15.13000011  10.60999966  55.98999786
C    24.87999916  12.81999969  55.13000107
H    25.22936821  12.15691280  55.92142868
H    20.72999954  10.67999935  57.35000229
H    18.82999992  12.71999931  53.18000031
H    21.21000099  13.50000000  52.50999832
H    23.50000000  13.68999958  52.94000244
H    23.08000183  11.56000042  56.56999969
H    14.68000031  10.08999920  56.83000183
H    25.00000000  13.82999992  55.54000092
H    25.45999908  12.69999981  54.20999908
