96

S    17.05999947  15.52999973  60.38999939
C    19.77000046  15.53999996  59.66999817
C    18.48999977  15.13000011  59.40999985
C    18.17000008  14.50000000  58.16999817
C    19.14999962  14.27000046  57.22000122
C    20.50000000  14.55999947  57.51999664
C    21.51000023  14.61999989  56.52000046
C    22.79999924  15.01000023  56.83000183
C    23.12000084  15.57999992  58.09000015
C    22.11999893  15.69000053  59.02000046
C    20.81000137  15.17000008  58.77999878
C    16.72000122  14.44000053  58.04999924
C    15.95000076  14.93000031  59.13999939
C    14.56999969  15.08999920  59.23999786
C    24.44000053  16.25000000  58.39000320
H    25.11839485  15.58588791  58.92557526
H    19.96000099  16.31999969  60.40999985
H    18.86999893  14.04999924  56.19999695
H    21.25000000  14.39000034  55.48999786
H    23.48999977  15.19999981  56.00999832
H    22.34999847  16.35000038  59.86000061
H    14.07999992  15.47999954  60.13000107
H    25.00999832  16.55999947  57.50000000
H    24.30000114  17.17000008  58.95999908
S    13.50000000  13.85000038  55.65000153
C    10.73999977  14.09000015  56.17000198
C    12.03999996  14.25000000  56.58000183
C    12.38999939  14.73000050  57.88000107
C    11.35000038  14.93000031  58.77999878
C    10.01999950  14.59000015  58.43999863
C     8.90999985  14.80000019  59.31000137
C     7.60999966  14.52999973  58.95999908
C     7.30999994  13.88000011  57.74000168
C     8.34000015  13.73000050  56.84000015
C     9.67000008  14.15999985  57.11000061
C    13.82999992  14.81999969  58.09000015
C    14.56999969  14.30999947  56.98999786
C    15.93999958  14.09999943  56.93999863
C     5.88000011  13.48000050  57.45999908
H     5.38970661  14.06977367  56.68547821
H    10.52999973  13.64999962  55.20000076
H    11.54999924  15.31000042  59.78000259
H     9.02999973  15.14000034  60.33000183
H     6.77999973  14.65999985  59.65000153
H     8.27000046  13.35999966  55.81999969
H    16.32999992  13.83999920  55.94999695
H     5.27999973  13.61999989  58.36999893
H     5.75999975  12.41000080  57.25999832
S    17.38000107  15.59999943  54.29999924
C    19.97999954  15.97000027  53.60000229
C    18.78000069  15.40999985  53.22999954
C    18.44000053  15.11000061  51.86999893
C    19.45000076  15.18000031  50.91999817
C    20.76000023  15.54999924  51.29000092
C    21.90000153  15.39999962  50.45000076
C    23.13999939  15.85999966  50.84999847
C    23.35000038  16.43000031  52.12999725
C    22.29000092  16.51000023  53.00000000
C    21.01000023  16.02000046  52.63000107
C    17.00000000  14.96999931  51.75000000
C    16.28000069  15.26999950  52.94000244
C    14.91000080  15.44999981  52.97999954
C    24.77999878  16.79000092  52.48000336
H    25.31567574  16.05433655  53.07995987
H    20.15999985  16.36000061  54.59999847
H    19.18000031  14.85000038  49.92000198
H    21.80000114  15.07999992  49.41999817
H    23.97000122  15.70000076  50.18000031
H    22.39999962  16.72000122  54.06999969
H    14.35999966  15.52000046  53.92000198
H    25.34000015  17.05000114  51.56999969
H    24.64999962  17.71000099  53.04999924
S    13.71000099  14.56999969  49.27999878
C    10.98999977  14.75999928  50.02999878
C    12.32999992  14.78999996  50.37000275
C    12.71000004  15.17000008  51.70000076
C    11.71000004  15.40999985  52.62000275
C    10.34000015  15.19999981  52.34000397
C     9.30999947  15.14000034  53.31999969
C     8.01000023  15.03000069  52.90000153
C     7.57999992  14.63999939  51.59999847
C     8.60999966  14.57999992  50.68999863
C     9.96000004  14.92000008  50.98999786
C    14.15999985  15.22999954  51.81999969
C    14.82999992  14.82999992  50.63000107
C    16.21999931  14.68999958  50.63000107
C     6.11000013  14.47000027  51.31000137
H     5.81097031  14.71919155  50.29187393
H    10.72000027  14.39000034  49.03999710
H    11.89000034  15.40999985  53.68999863
H     9.52999973  15.39999962  54.36000061
H     7.17000008  15.26999950  53.54999924
H     8.38999939  14.14999962  49.72000122
H    16.61000061  14.42999935  49.65000153
H     5.61999989  14.98000050  52.15000153
H     5.89999962  13.40000057  51.42000198
