96

S    16.69000053  16.06999969  60.05000305
C    19.36000061  16.15999985  59.45000076
C    18.12000084  15.70000076  59.06999969
C    17.79000092  15.06999969  57.83000183
C    18.84000015  14.85999966  56.95000076
C    20.13999939  15.29999924  57.29000092
C    21.21000099  15.21000004  56.36000061
C    22.50999832  15.40999985  56.77000046
C    22.79999924  15.86999989  58.08000183
C    21.78999901  16.03000069  59.00000000
C    20.43999863  15.84000015  58.57999802
C    16.35000038  14.88000011  57.68000031
C    15.64000034  15.50000000  58.74000168
C    14.26000023  15.67999935  58.77999878
C    24.23000145  16.18000031  58.48999786
H    24.70251465  15.59293938  59.27751923
H    19.60000038  16.79000092  60.30000305
H    18.57999992  14.50000000  55.96000290
H    20.94000053  14.93000031  55.34000015
H    23.29999924  15.19999981  56.05999756
H    22.00000000  16.44000053  59.98000336
H    13.78999901  16.11999893  59.65000153
H    24.92000198  16.26000023  57.63999939
H    24.10000038  17.18000031  58.92000198
S    13.17999935  14.22000027  55.26000214
C    10.51000023  14.19000053  56.02000427
C    11.77999973  14.63000107  56.26999664
C    12.10000038  15.19000053  57.55000305
C    11.10999966  15.43000031  58.48999786
C     9.80000019  14.96000099  58.26000214
C     8.73999977  15.21000004  59.18000031
C     7.42999983  15.01000023  58.81999969
C     7.11000013  14.48999977  57.54000092
C     8.11999989  14.09000015  56.69000244
C     9.48999977  14.34999943  56.98999786
C    13.53999996  15.34000015  57.62000275
C    14.27000046  14.73999977  56.56000137
C    15.64000034  14.51000023  56.53999710
C     5.69000006  14.04999924  57.28000259
H     5.19786501  14.79890156  56.65948105
H    10.29000092  13.64999962  55.10000229
H    11.28999901  15.84000015  59.47999954
H     9.04999924  15.44000053  60.20000076
H     6.69000053  15.15999985  59.59999847
H     7.86999989  13.73000050  55.70000076
H    16.15999985  14.17000008  55.65000153
H     5.15999985  13.96000004  58.23999786
H     5.59000015  13.15000057  56.65000153
S    17.26000023  16.43000031  54.20000076
C    19.98999977  16.54000092  53.50000000
C    18.70000076  16.21000099  53.18000031
C    18.35000038  15.67000008  51.90000153
C    19.34999847  15.44000053  50.97000122
C    20.71000099  15.72999954  51.24000168
C    21.77999878  15.51000023  50.33000183
C    23.06999969  15.85999966  50.65999985
C    23.35000038  16.39999962  51.95000076
C    22.34999847  16.54000092  52.88999939
C    21.00000000  16.25000000  52.55000305
C    16.93000031  15.43000031  51.72999954
C    16.21000099  15.90999985  52.85999680
C    14.82999992  16.05999947  52.95000076
C    24.76000023  16.77999878  52.32999802
H    25.16669464  16.20919991  53.16479492
H    20.35000038  16.93000031  54.45000076
H    19.11000061  15.03999901  49.99000168
H    21.59000015  15.06000042  49.36000061
H    23.97999954  15.70000076  50.10000229
H    22.56000137  16.82999992  53.90999603
H    14.47000027  16.62999916  53.79000092
H    25.40999985  16.59000015  51.45999908
H    24.86000061  17.86999893  52.42000198
S    13.63000011  14.47000027  49.47999954
C    10.92000008  14.63999939  50.13000107
C    12.23000050  14.91000080  50.47999954
C    12.64000034  15.55999947  51.69000244
C    11.63000011  15.85999966  52.57999802
C    10.27999973  15.46000004  52.39999771
C     9.25000000  15.50000000  53.37999725
C     7.95000029  15.18000031  53.06000137
C     7.59999990  14.73999977  51.75000000
C     8.57999992  14.65000057  50.77999878
C     9.92999935  14.92000008  51.11000061
C    14.07999992  15.62000084  51.84999847
C    14.73999977  15.01000023  50.75000000
C    16.13000107  14.93999958  50.68999863
C     6.21999979  14.22000027  51.42000198
H     5.68497753  14.85489368  50.71377182
H    10.67000008  14.13000011  49.20999908
H    11.98999977  16.32999992  53.48999786
H     9.47000027  15.78999996  54.40000153
H     7.23000002  15.05000019  53.86000061
H     8.27999973  14.01999950  49.93999863
H    16.65999985  14.53999996  49.82999802
H     5.65000010  14.06000042  52.35000229
H     6.28999996  13.27999973  50.84999847
