96

S    16.76000023  15.48999977  60.45999908
C    19.50000000  15.57000065  59.75999832
C    18.20000076  15.21999931  59.45999908
C    17.87999916  14.56999969  58.22000122
C    18.86999893  14.55000019  57.25999832
C    20.20000076  14.96000099  57.50000000
C    21.25000000  14.70999908  56.56000137
C    22.53000069  15.01999950  56.93999863
C    22.86000061  15.72000027  58.13000107
C    21.86000061  15.95000076  59.05000305
C    20.52999878  15.50000000  58.79000092
C    16.44000053  14.52000046  58.04000092
C    15.69000053  15.08999920  59.10999680
C    14.29999924  15.13000011  59.16999817
C    24.28999901  16.01000023  58.50999832
H    24.63201904  15.32596207  59.28666687
H    19.81999969  15.84000015  60.76000214
H    18.68000031  14.25000000  56.23000336
H    21.05999947  14.09000015  55.68999863
H    23.38999939  14.73000050  56.33999634
H    22.04999924  16.40999985  60.00999832
H    13.86000061  15.38000011  60.13000107
H    24.93000031  15.80999947  57.63999939
H    24.31999969  17.07999992  58.74000168
S    13.22000027  13.82999992  55.61000061
C    10.46000004  13.78000069  56.25999832
C    11.76000023  14.13000011  56.56999969
C    12.13000107  14.52999973  57.88999939
C    11.16000080  14.73999977  58.85000229
C     9.81000042  14.42000008  58.54999924
C     8.76000023  14.47000027  59.50000000
C     7.46000004  14.17000008  59.16999817
C     7.09000015  13.64999962  57.90000153
C     8.10999966  13.52000046  56.98999786
C     9.46000004  13.89999962  57.25000000
C    13.56999969  14.68999958  58.06000137
C    14.30999947  14.19999981  56.95999908
C    15.70000076  14.09999943  56.93000031
C     5.64000034  13.30999947  57.58999634
H     5.19107056  13.98695755  56.86315918
H    10.10000038  13.47000027  55.27999878
H    11.40999985  15.15999985  59.81999969
H     9.09000015  14.96999931  60.41999817
H     6.67999983  14.51000023  59.84000397
H     7.88000011  12.94000053  56.10000229
H    16.25000000  13.82999992  56.04000092
H     5.03999996  13.48000050  58.48999786
H     5.58000040  12.23999977  57.36999893
S    13.43999958  11.97999954  52.43000031
C    10.77999973  11.42000008  53.13000107
C    12.11999989  11.40999985  53.47000122
C    12.63000011  10.77999973  54.65000153
C    11.65999985  10.26000023  55.48999786
C    10.26000023  10.34000015  55.26000214
C     9.26999950   9.81999969  56.14999771
C     7.95000029   9.80000019  55.77000046
C     7.53000021  10.55999947  54.64000320
C     8.42000008  11.02000046  53.69999695
C     9.80000019  10.95000076  54.03999710
C    14.07999992  10.80999947  54.72000122
C    14.65999985  11.50000000  53.61999893
C    16.01000023  11.82999992  53.61999893
C     6.03999996  10.72999954  54.41999817
H     5.60633087   9.91242790  53.84414291
H    10.39999962  11.92999935  52.25999832
H    11.92000008   9.73999977  56.39999771
H     9.57999992   9.38000011  57.09000015
H     7.26999998   9.10000038  56.25000000
H     8.03999996  11.40999985  52.76000214
H    16.32999992  12.34000015  52.71999741
H     5.55000019  10.77000046  55.40000153
H     5.80999947  11.68000031  53.93000031
S    17.43999863  10.31999969  57.04999924
C    20.02000046  10.98000050  56.35000229
C    18.68000031  11.14999962  56.09000397
C    18.23999977  11.69999981  54.84000397
C    19.17000008  12.05999947  53.88999939
C    20.55000114  12.00000000  54.18000031
C    21.59000015  12.46999931  53.30999756
C    22.90999985  12.18999958  53.53000259
C    23.31000137  11.67000008  54.79000092
C    22.37999916  11.36000061  55.75000000
C    21.00000000  11.39000034  55.40000153
C    16.81999969  11.42000008  54.68999863
C    16.26000023  10.70000076  55.77000046
C    14.89999962  10.44000053  55.79000092
C    24.77000046  11.42000008  55.11000061
H    24.98348427  11.55520725  56.17030334
H    20.36000061  10.38000011  57.18000031
H    18.78999901  12.18999958  52.87000275
H    21.31999969  13.03999996  52.43000031
H    23.71999931  12.53000069  52.88999939
H    22.63999939  10.90999985  56.70000076
H    14.42999935   9.94999981  56.65000153
H    25.40999985  12.10000038  54.54000092
H    25.02000046  10.39999962  54.79999924
