96

S    16.77000046  15.75000000  60.50000000
C    19.47999954  15.85000038  59.73999786
C    18.19000053  15.44000053  59.48999786
C    17.79000092  14.91000080  58.22000122
C    18.79999924  14.60999966  57.31999969
C    20.13000107  15.03000069  57.55000305
C    21.18999863  14.82999992  56.63000107
C    22.50000000  15.11999989  56.93999863
C    22.86999893  15.62999916  58.20999908
C    21.87999916  15.86999989  59.13999939
C    20.52999878  15.52000046  58.83999634
C    16.35000038  14.92000008  58.02000046
C    15.65000057  15.39000034  59.15999985
C    14.26000023  15.34999943  59.19000244
C    24.21999931  16.21999931  58.53000259
H    24.80294037  15.60151386  59.21246719
H    19.69000053  16.42000008  60.63999939
H    18.70000076  14.04000092  56.39999771
H    20.92000008  14.55000019  55.61999893
H    23.16999817  14.98000050  56.09000397
H    22.23999977  16.36999893  60.04000092
H    13.69999981  15.57999992  60.08999634
H    24.79000092  16.34000015  57.60000229
H    24.02000046  17.25000000  58.83999634
S    13.27999973  13.90999985  55.59999847
C    10.52999973  13.96999931  56.12999725
C    11.80999947  14.27000046  56.52999878
C    12.07999992  14.81999969  57.83000183
C    11.02000046  15.05000019  58.68000031
C     9.68000031  14.80999947  58.29000092
C     8.61999989  14.98000050  59.22999954
C     7.32999992  14.75000000  58.81999969
C     7.07000017  14.23999977  57.51999664
C     8.09000015  14.02999973  56.60999680
C     9.44000053  14.21000004  57.01000214
C    13.50000000  15.05000019  58.04999924
C    14.23999977  14.53999996  56.95000076
C    15.62999916  14.47999954  56.90000153
C     5.71000004  13.64999962  57.22999954
H     5.15494061  14.19794273  56.46857452
H    10.47000027  13.52000046  55.13999939
H    11.30000019  15.29999924  59.69999695
H     8.84000015  15.24000072  60.26000214
H     6.48000002  15.01999950  59.43999863
H     8.01000023  13.38000107  55.73999786
H    16.14999962  13.93000031  56.11999893
H     5.10999966  13.61999989  58.13999939
H     5.86999989  12.61000061  56.90000153
S    17.30999947  15.88999939  54.20999908
C    19.98999977  16.00000000  53.50000000
C    18.70000076  15.75000000  53.11000061
C    18.29000092  15.50000000  51.76000214
C    19.31999969  15.40999985  50.84999847
C    20.69000053  15.64000034  51.13999939
C    21.70999908  15.47000027  50.14999771
C    23.00000000  15.82999992  50.47999954
C    23.29999924  16.25000000  51.81000137
C    22.32999992  16.39000130  52.77999878
C    20.98999977  16.01000023  52.49000168
C    16.84000015  15.57000065  51.66999817
C    16.13999939  15.77999973  52.88999939
C    14.75999928  15.77000046  53.00000000
C    24.65999985  16.86000061  52.05999756
H    25.29627037  16.21657944  52.66767120
H    20.15000153  16.56999969  54.40999985
H    19.02000046  15.08999920  49.86000061
H    21.28000069  15.21000004  49.19000244
H    23.71999931  15.75000000  49.68000031
H    22.62000084  16.86000061  53.72000122
H    14.21000004  15.80000019  53.94000244
H    25.13999939  17.11000061  51.10000229
H    24.54000092  17.85000038  52.50999832
S    13.50000000  15.06000042  49.29999924
C    10.84000015  14.77000046  50.06999969
C    12.13000107  15.08999920  50.43000031
C    12.56000042  15.42000008  51.76000214
C    11.59000015  15.47999954  52.74000168
C    10.22999954  15.31999969  52.36999893
C     9.26000023  15.38000011  53.40999985
C     7.96999979  15.00000000  53.11000061
C     7.57000017  14.52999973  51.83000183
C     8.48999977  14.52000046  50.79999924
C     9.82999992  14.91000080  51.04999924
C    14.01000023  15.47999954  51.84000015
C    14.67000008  15.34999943  50.59999847
C    16.05999947  15.32999992  50.52999878
C     6.15999985  14.06999969  51.55000305
H     5.72686625  14.69484901  50.76893997
H    10.62999916  14.34000015  49.09000015
H    11.79999924  15.57000065  53.80000305
H     9.63999939  15.81999969  54.33000183
H     7.30000019  15.07999992  53.95999908
H     8.21000004  14.14000034  49.81999969
H    16.51000023  14.88000011  49.65000153
H     5.63000011  14.27000046  52.50000000
H     6.15000010  12.98999977  51.37000275
