96

S    16.51000023  15.22999954  60.27999878
C    19.18000031  15.76000023  59.56999969
C    17.94999886  15.24000072  59.25000000
C    17.53000069  14.93999958  57.90999985
C    18.56999969  14.93999958  57.00000000
C    19.88999939  15.38000011  57.23999786
C    20.98999977  15.29999924  56.32999802
C    22.27999878  15.57999992  56.72999954
C    22.55000114  16.02000046  58.04999924
C    21.51000023  16.21999931  58.93000031
C    20.19000053  15.80999947  58.57999802
C    16.09000015  15.01000023  57.71999741
C    15.36999893  15.19999981  58.92000198
C    13.99000072  15.34999943  59.01000214
C    23.94000053  16.46000099  58.43999863
H    24.50852776  15.78487396  59.07959366
H    19.34000015  16.14999962  60.56999969
H    18.35000038  14.48999977  56.04000092
H    20.85000038  14.82999992  55.35999680
H    23.05999947  15.51000023  55.97999954
H    21.63000107  16.59000015  59.94999695
H    13.35999966  15.36000061  59.88999939
H    24.40000153  16.48999977  57.44999695
H    23.81000137  17.48999977  58.80000305
S    12.89999962  14.63999939  55.26000214
C    10.22999954  14.47000027  55.93999863
C    11.50000000  14.82999992  56.32999802
C    11.89000034  15.22999954  57.64999771
C    10.90999985  15.36000061  58.61999893
C     9.56999969  15.08999920  58.27000046
C     8.53999996  15.14999962  59.25000000
C     7.26999998  14.70999908  58.95000076
C     6.89000034  14.22999954  57.67000198
C     7.90999985  14.13000011  56.76000214
C     9.26000023  14.53999996  56.97999954
C    13.34000015  15.26000023  57.77999878
C    14.04000092  15.00000000  56.56999969
C    15.42000008  14.85999966  56.49000168
C     5.45000029  13.83999920  57.42000198
H     4.95261288  14.45107651  56.66681290
H    10.03000069  14.07999992  54.94999695
H    11.18000031  15.47000027  59.66999817
H     8.78999996  15.48999977  60.25000000
H     6.44000006  14.81999969  59.62999725
H     7.78999996  13.71999931  55.76000214
H    15.92000008  14.59000015  55.56999969
H     4.82999992  13.86999989  58.33000183
H     5.42000008  12.86000061  56.93000031
S    13.28999996  12.48000050  52.52999878
C    10.62999916  11.92999935  53.11999893
C    11.95000076  11.84999943  53.50000000
C    12.36999989  11.18999958  54.69999695
C    11.39999962  10.59000015  55.47999954
C    10.03000069  10.85000038  55.27000046
C     8.98999977  10.53999996  56.19999695
C     7.65999985  10.57000065  55.86999893
C     7.31999969  11.28000069  54.68999863
C     8.26000023  11.73999977  53.80000305
C     9.63000011  11.46000004  54.02999878
C    13.82999992  11.18999958  54.79000092
C    14.46000004  11.89000034  53.73000336
C    15.82999992  12.10999966  53.66000366
C     5.86000013  11.51999950  54.38000107
H     5.55342388  11.03518200  53.45314407
H    10.32999992  12.43999958  52.22000122
H    11.72000027  10.06999969  56.38000107
H     9.43000031  10.06999969  57.06999969
H     7.03000021  10.26999950  56.70999908
H     8.01999950  12.28999996  52.88999939
H    16.31000137  12.64000034  52.84000015
H     5.31000042  11.19999981  55.27000046
H     5.73000002  12.60000038  54.22000122
S    17.19000053  10.57999992  57.05999756
C    19.85000038  11.28000069  56.46999741
C    18.52000046  11.26999950  56.11999893
C    18.04000092  11.89000034  54.92000198
C    18.94000053  12.43999958  54.02000046
C    20.29999924  12.38000011  54.38999939
C    21.25000000  12.97000027  53.50999832
C    22.60999870  12.94999981  53.75000000
C    23.12000084  12.31999969  54.92000198
C    22.23999977  11.72000027  55.79999924
C    20.84000015  11.82999992  55.61000061
C    16.60000038  11.76000023  54.77000427
C    15.98999977  11.06999969  55.84999847
C    14.63000107  10.75000000  55.84000015
C    24.60000038  12.03999996  55.07999802
H    24.93377495  12.16782951  56.10973358
H    20.06000137  10.57000065  57.27000427
H    18.60000038  12.71999931  53.02999878
H    20.88000107  13.20000076  52.51999664
H    23.29999924  13.27000046  52.98999786
H    22.53999901  11.05000019  56.59999847
H    14.29999924  10.13000011  56.66999817
H    25.20000076  12.58999920  54.34999847
H    24.71999931  11.00999928  54.69999695
