96

S    16.87000084  16.21999931  60.26000214
C    19.55999947  16.36000061  59.52999878
C    18.32999992  15.77000046  59.36000061
C    17.97999954  15.00000000  58.20999908
C    18.96000099  14.82999992  57.23999786
C    20.28000069  15.31999969  57.37999725
C    21.35999870  14.93999958  56.53999710
C    22.65999985  15.18000031  56.90000153
C    22.93000031  16.03000069  58.01000214
C    21.91999817  16.44000053  58.85000229
C    20.58000183  16.03999901  58.59000397
C    16.54999924  14.92000008  57.98999786
C    15.80000019  15.53999996  59.02000046
C    14.40999985  15.65000057  59.02000046
C    24.34999847  16.44000053  58.31999969
H    24.72790337  15.92661953  59.20415497
H    19.81999969  16.97999954  60.38000107
H    18.86000061  14.22000027  56.35000229
H    21.14999962  14.51000023  55.56000137
H    23.47999954  14.73000050  56.32999802
H    22.20999908  16.86000061  59.80999756
H    13.89000034  16.06999969  59.87999725
H    24.90999985  16.02000046  57.48000336
H    24.41999817  17.53999901  58.30999756
S    13.36999989  14.27999973  55.47999954
C    10.64000034  14.68999958  55.93000031
C    11.94000053  14.85999966  56.35000229
C    12.25999928  15.36000061  57.63999939
C    11.21000099  15.59000015  58.50999832
C     9.85999966  15.36999893  58.15999985
C     8.84000015  15.36000061  59.15000153
C     7.55999994  14.98999977  58.81000137
C     7.18999958  14.65999985  57.48000336
C     8.21000004  14.53999996  56.56000137
C     9.55999947  14.88999939  56.84000015
C    13.71000099  15.36999893  57.84999847
C    14.45000076  14.78999996  56.79000092
C    15.80999947  14.51000023  56.86999893
C     5.84999990  14.01999950  57.23999786
H     5.33013391  14.53986645  56.43527603
H    10.34999943  14.15999985  55.01999664
H    11.47999954  15.80999947  59.54999924
H     9.01000023  15.55999947  60.20999908
H     6.91999960  14.86999989  59.66999817
H     8.03999996  14.22000027  55.52999878
H    16.31999969  14.22999954  55.94999695
H     5.38999987  14.01999950  58.22999954
H     6.01999998  12.96000004  56.98999786
S    17.36999893  15.93000031  54.31999969
C    20.06000137  16.13000107  53.56999969
C    18.78000069  15.72999954  53.27000046
C    18.42000008  15.44999981  51.90999985
C    19.37999916  15.31999969  50.91999817
C    20.75000000  15.47000027  51.25000000
C    21.84999847  15.39000034  50.34000015
C    23.12999916  15.72000027  50.68999863
C    23.43000031  16.13999939  52.01000214
C    22.39999962  16.27000046  52.90999985
C    21.04999924  15.98000050  52.56000137
C    16.97999954  15.39000034  51.77000046
C    16.28000069  15.82999992  52.93000031
C    14.89999962  15.98000050  52.87000275
C    24.84999847  16.48999977  52.43000031
H    25.24990273  15.84015846  53.20838547
H    20.38999939  16.54000092  54.52000046
H    18.95000076  15.17000008  49.93000031
H    21.57999992  15.19999981  49.29999924
H    23.97000122  15.67000008  50.00000000
H    22.55000114  16.61000061  53.93000031
H    14.37000084  16.21999931  53.79000092
H    25.48000145  16.48999977  51.52999878
H    24.84000015  17.52000046  52.78999710
S    13.73000050  14.89999962  49.27000046
C    10.98000050  14.75999928  50.01999664
C    12.28000069  15.14000034  50.27000046
C    12.69000053  15.70000076  51.52000046
C    11.68000031  15.92000008  52.43999863
C    10.31000042  15.72000027  52.12999725
C     9.26999950  15.90000057  53.09000015
C     7.96000004  15.57999992  52.81000137
C     7.60999966  14.94999981  51.58000183
C     8.57999992  14.73999977  50.63000107
C     9.92000008  15.14000034  50.87999725
C    14.11999893  15.65000057  51.76000214
C    14.85000038  15.25000000  50.59999847
C    16.23999977  15.17000008  50.59999847
C     6.14000034  14.68000031  51.33999634
H     5.83261967  15.17323780  50.41786194
H    10.75000000  13.99000072  49.29000092
H    11.92999935  16.23999977  53.43999863
H     9.39999962  16.17000008  54.13000107
H     7.23999977  15.93999958  53.53000259
H     8.23999977  14.25000000  49.71000290
H    16.61999893  14.98999977  49.61000061
H     5.59000015  15.01000023  52.22999954
H     6.01000023  13.59000015  51.35000229
