96

S    16.43000031  15.80000019  60.40000153
C    19.14999962  15.86999989  59.69999695
C    17.86999893  15.44999981  59.41999817
C    17.56999969  14.85000038  58.15000153
C    18.61999893  14.59000015  57.29000092
C    19.96000099  14.86999989  57.62000275
C    21.05999947  14.72000027  56.72999954
C    22.34000015  15.08999920  57.04999924
C    22.59000015  15.77000046  58.27999878
C    21.57999992  15.92000008  59.19000244
C    20.23999977  15.55999947  58.85000229
C    16.13000107  14.86999989  57.91999817
C    15.39999962  15.34999943  59.02999878
C    14.01000023  15.36000061  59.02000046
C    24.00000000  16.25000000  58.56999969
H    24.54803658  15.55249977  59.20344162
H    19.38999939  16.29999924  60.66999817
H    18.39999962  14.19999981  56.30000305
H    20.68000031  14.44000053  55.73999786
H    23.12999916  14.98999977  56.31000137
H    21.73999977  16.45000076  60.12000275
H    13.57999992  15.60999966  59.99000168
H    24.61000061  16.39000130  57.67000198
H    23.81999969  17.20000076  59.09000015
S    12.89999962  14.22999954  55.40999985
C    10.19999981  14.42000008  55.93999863
C    11.47999954  14.68999958  56.36000061
C    11.84999943  14.98000050  57.71999741
C    10.78999996  15.25000000  58.55999756
C     9.44000053  14.96000099  58.23999786
C     8.38000011  15.05000019  59.18000031
C     7.11000013  14.65999985  58.81000137
C     6.80000019  14.22999954  57.49000168
C     7.81000042  14.23999977  56.55000305
C     9.15999985  14.53999996  56.88999939
C    13.30000019  15.01000023  57.87000275
C    14.02999973  14.52999973  56.75000000
C    15.40999985  14.40000057  56.81000137
C     5.42999983  13.69999981  57.15000153
H     5.02586794  14.18921280  56.26374817
H    10.03999901  14.07999992  54.92000198
H    11.03000069  15.53999996  59.58000183
H     8.60999966  15.32999992  60.20000076
H     6.39999962  14.68999958  59.62999725
H     7.60999966  13.90999985  55.52999878
H    15.88999939  13.78999901  56.04999924
H     4.69999981  13.80000019  57.95999908
H     5.44000053  12.61000061  57.09999847
S    13.45000076  12.41000080  52.42000198
C    10.76000023  11.96000004  53.11000061
C    12.10000038  11.77000046  53.36999893
C    12.48999977  11.09000015  54.56999969
C    11.59000015  10.52999973  55.45000076
C    10.21000004  10.62000084  55.12000275
C     9.13999939  10.08999920  55.90000153
C     7.82000017  10.18000031  55.52999878
C     7.46999979  10.90000057  54.34999847
C     8.43999958  11.50000000  53.57999802
C     9.80000019  11.33999920  53.94000244
C    13.94000053  11.13000011  54.71000290
C    14.57999992  11.78999996  53.62999725
C    15.95000076  12.02000046  53.61000061
C     6.02999973  11.30000019  54.09000015
H     5.48376608  10.64735699  53.40898132
H    10.52000046  12.46999931  52.18000031
H    11.92000008  10.32999992  56.46999741
H     9.23999977   9.81000042  56.93999863
H     7.07000017   9.88000011  56.25000000
H     8.13000011  12.15000057  52.76000214
H    16.46000099  12.72999954  52.97000122
H     5.46000004  11.36000061  55.01999664
H     5.92999983  12.28000069  53.61000061
S    17.19000053  10.57000065  57.11000061
C    19.85000038  10.93999958  56.39999771
C    18.53000069  11.00999928  56.03000259
C    18.12999916  11.75000000  54.86999893
C    19.07999992  12.30000019  54.02999878
C    20.45999908  12.15999985  54.34000015
C    21.51000023  12.71000004  53.54999924
C    22.81999969  12.57999992  53.93000031
C    23.15000153  11.82999992  55.10000229
C    22.20000076  11.23999977  55.90000153
C    20.85000038  11.40999985  55.50000000
C    16.69000053  11.56999969  54.72000122
C    16.04999924  10.93999958  55.80999756
C    14.67000008  10.72999954  55.84000015
C    24.61999893  11.63000011  55.40000153
H    25.04774284  12.02922630  56.31964874
H    20.13000107  10.31999969  57.23999786
H    18.78999901  12.60000038  53.02999878
H    21.25999832  13.36999989  52.71999741
H    23.45000076  13.20000076  53.29999924
H    22.49000168  10.75000000  56.83000183
H    14.11999893  10.25000000  56.63999939
H    25.13000107  12.13999939  54.58000183
H    24.69000053  10.53999996  55.27000046
