96

S    16.27000046  15.73999977  60.25000000
C    19.03000069  15.67999935  59.65000153
C    17.72999954  15.43000031  59.29000092
C    17.42000008  14.86999989  58.01000214
C    18.46999931  14.63999939  57.15000153
C    19.79999924  15.01000023  57.45999908
C    20.89999962  14.80999947  56.58000183
C    22.20000076  15.21999931  56.77000046
C    22.47999954  15.81999969  58.02000046
C    21.47000122  15.97000027  58.95000076
C    20.10999870  15.57999992  58.74000168
C    15.98000050  14.72000027  57.83000183
C    15.22999954  15.31000042  58.88000107
C    13.86000061  15.51000023  58.82999802
C    23.84000015  16.36999893  58.37999725
H    24.39617348  15.85660934  59.16434479
H    19.27999878  16.02000046  60.65000153
H    18.42000008  14.01999950  56.25999832
H    20.58000183  14.40999985  55.61999893
H    22.98000145  15.01999950  56.04000092
H    21.68000031  16.39999962  59.92000198
H    13.25000000  15.65999985  59.71000290
H    24.47999954  16.26000023  57.49000168
H    23.88000107  17.40999985  58.70999908
S    12.79000092  13.78000069  55.38999939
C    10.03999901  13.90999985  56.07999802
C    11.36000061  14.22000027  56.35000229
C    11.73999977  14.92000008  57.54000092
C    10.75000000  15.14000034  58.47000122
C     9.38000011  14.80000019  58.30999756
C     8.43000031  14.78000069  59.36999893
C     7.09999990  14.46000004  59.16999817
C     6.76000023  14.01999950  57.87000275
C     7.67000008  13.94000053  56.84000015
C     9.04999924  14.22000027  57.04000092
C    13.17999935  15.08999920  57.68000031
C    13.86999989  14.39000034  56.65999985
C    15.25000000  14.27000046  56.72000122
C     5.32000017  13.61999989  57.60000229
H     4.78390884  14.22757053  56.87091827
H     9.78999996  13.38000107  55.15999603
H    11.13999939  15.55999947  59.40000153
H     8.75000000  14.98999977  60.38999939
H     6.37000036  14.51000023  59.97000122
H     7.42999983  13.68000031  55.80999756
H    15.75000000  13.85000038  55.84999847
H     4.76999998  13.69999981  58.54000092
H     5.36999989  12.53000069  57.49000168
S    13.30000019  11.84000015  52.43000031
C    10.64000034  11.14999962  53.01000214
C    11.96000004  11.16000080  53.37999725
C    12.42000008  10.57000065  54.59999847
C    11.47999954  10.03000069  55.45999908
C    10.11000061  10.26000023  55.20000076
C     9.13999939   9.85000038  56.14999771
C     7.79999971  10.03000069  55.90000153
C     7.31999969  10.57000065  54.68000031
C     8.23999977  10.95000076  53.74000168
C     9.63999939  10.85999966  53.97999573
C    13.86000061  10.72999954  54.73999786
C    14.50000000  11.42000008  53.67000198
C    15.80000019  11.90000057  53.70999908
C     5.89999962  11.07999992  54.48999786
H     5.42236233  10.60236263  53.63452911
H    10.39999962  11.64000034  52.06999969
H    11.72999954   9.52999973  56.39999771
H     9.44999981   9.35000038  57.05999756
H     6.98000002   9.68000031  56.52999878
H     7.95000029  11.46000004  52.81999969
H    16.18999863  12.39999962  52.83000183
H     5.26999998  11.02000046  55.38000107
H     5.88999987  12.15999985  54.33000183
S    17.14999962  10.25000000  57.11999893
C    19.77000046  11.10999966  56.63000107
C    18.45999908  11.05000019  56.22000122
C    18.02000046  11.57999992  54.95999908
C    18.95000076  12.13000107  54.09999847
C    20.31999969  12.10000038  54.45999908
C    21.28999901  12.39999962  53.47000122
C    22.62000084  12.15999985  53.70999908
C    23.05000114  11.69000053  54.98000336
C    22.13999939  11.31000042  55.93000031
C    20.76000023  11.56000042  55.72000122
C    16.56999969  11.49000072  54.80999756
C    15.98000050  10.85000038  55.91999817
C    14.65000057  10.44999981  55.86999893
C    24.50000000  11.46000004  55.34000015
H    24.81268883  11.87218189  56.29939270
H    20.03999901  10.54999924  57.52999878
H    18.53999901  12.69000053  53.27000046
H    20.89999962  12.77999973  52.52999878
H    23.32999992  12.38000011  52.91999817
H    22.39999962  10.82999992  56.88000107
H    14.07999992  10.05000019  56.70999908
H    25.15000153  11.84000015  54.54000092
H    24.57999992  10.36000061  55.34000015
