96

S    16.62999916  15.59000015  60.27000046
C    19.34000015  15.62000084  59.47000122
C    18.01000023  15.46000004  59.16999817
C    17.64999962  15.17000008  57.81000137
C    18.57999992  15.06999969  56.79000092
C    19.92000008  15.36000061  57.14000320
C    20.90999985  15.26999950  56.11999893
C    22.21999931  15.59999943  56.39999771
C    22.57999802  16.09000015  57.69000244
C    21.68000031  16.10000038  58.73000336
C    20.35000038  15.65999985  58.47000122
C    16.20000076  15.08999920  57.72999573
C    15.50000000  15.42000008  58.92000198
C    14.11000061  15.52000046  58.90999603
C    24.01000023  16.50000000  57.95999908
H    24.50118256  15.85221004  58.68609238
H    19.61000061  15.78999996  60.51000214
H    18.30999947  14.77000046  55.77999878
H    20.55000114  14.93000031  55.14999771
H    22.93999863  15.39999962  55.61999893
H    22.03000069  16.39999962  59.72000122
H    13.69999981  15.72000027  59.88999939
H    24.47000122  16.50000000  56.95999908
H    23.98999977  17.51000023  58.39000320
S    12.88000011  14.34999943  55.35999680
C    10.26000023  14.18000031  56.13999939
C    11.51000023  14.65999985  56.44000244
C    11.92000008  15.19999981  57.70000076
C    10.90000057  15.21999931  58.62999725
C     9.56999969  14.80999947  58.36999893
C     8.48999977  15.06999969  59.27000046
C     7.17999983  14.96999931  58.86000061
C     6.81999969  14.52000046  57.56000137
C     7.82999992  14.22999954  56.66999817
C     9.19000053  14.42000008  57.04000092
C    13.36999989  15.25000000  57.75000000
C    14.06999969  14.80999947  56.59000015
C    15.44999981  14.73000050  56.59999847
C     5.38000011  14.23999977  57.21000290
H     5.02364731  14.73176670  56.30486298
H     9.96999931  13.64999962  55.22999573
H    11.18999958  15.47999954  59.64000320
H     8.65999985  15.52000046  60.25000000
H     6.37000036  15.24000072  59.52999878
H     7.63000011  14.09000015  55.61000061
H    15.86999989  14.39000034  55.65999985
H     4.71000004  14.45000076  58.06000137
H     5.25000000  13.15000057  57.12999725
S    17.27000046  16.56999969  54.10999680
C    19.89999962  16.77999878  53.34999847
C    18.65999985  16.25000000  53.04999924
C    18.31999969  15.78999996  51.73999786
C    19.37000084  15.71000004  50.84000015
C    20.66999817  16.17000008  51.16000366
C    21.73999977  16.10999870  50.21999741
C    23.00000000  16.61000061  50.45000076
C    23.31999969  16.93000031  51.79999924
C    22.34000015  17.06999969  52.75000000
C    20.98999977  16.73999977  52.43999863
C    16.90000153  15.50000000  51.63999939
C    16.22999954  16.04999924  52.76000214
C    14.84000015  16.09000015  52.77999878
C    24.75000000  17.31999969  52.11000061
H    25.16526604  16.62550354  52.84029388
H    20.00000000  17.11000061  54.38000107
H    19.19000053  15.36999893  49.82999802
H    21.45000076  15.71000004  49.25000000
H    23.71999931  16.73999977  49.65000153
H    22.60999870  17.38999939  53.75000000
H    14.37999916  16.15999985  53.75999832
H    25.30999947  17.15999985  51.18000031
H    24.77999878  18.37000084  52.44999695
S    13.73000050  15.05000019  49.09999847
C    11.02000046  14.77000046  49.89999771
C    12.28999996  15.25000000  50.12000275
C    12.68000031  15.72999954  51.40999603
C    11.65999985  15.85000038  52.34000397
C    10.34000015  15.39999962  52.15999985
C     9.28999996  15.57000065  53.11000061
C     8.03999996  15.07999992  52.81999969
C     7.73999977  14.55000019  51.52999878
C     8.69999981  14.34999943  50.56999969
C     9.98999977  14.88000011  50.86999893
C    14.11999893  15.88999939  51.59999847
C    14.81999969  15.40999985  50.45999908
C    16.18999863  15.19999981  50.47000122
C     6.32999992  14.07999992  51.25999832
H     5.83956099  14.54911613  50.40706253
H    10.81999969  14.27999973  48.95000076
H    11.82000065  16.21999931  53.34999847
H     9.43000031  16.23999977  53.95999908
H     7.26000023  15.07999992  53.56999969
H     8.31999969  13.92000008  49.65000153
H    16.73999977  14.75999928  49.64000320
H     5.72000027  14.34999943  52.12999725
H     6.26999950  12.98999977  51.10000229
