96

S    17.19000053  15.64000034  60.20999908
C    19.89999962  15.86999989  59.54999924
C    18.63000107  15.52000046  59.18000031
C    18.29000092  14.94999981  57.90999985
C    19.27000046  14.80000019  56.93999863
C    20.61000061  15.07999992  57.30999756
C    21.61000061  15.11999989  56.30000305
C    22.90999985  15.42000008  56.63000107
C    23.28000069  15.59999943  57.98999786
C    22.30999947  15.69000053  58.95999908
C    20.93000031  15.59000015  58.61999893
C    16.84999847  14.80000019  57.81000137
C    16.06999969  15.14000034  58.94000244
C    14.68000031  15.22999954  58.95999908
C    24.72999954  15.93000031  58.27999878
H    25.12086296  15.44675255  59.17543030
H    20.13999939  16.18999863  60.56999969
H    18.93000031  14.52000046  55.94999695
H    21.25999832  14.72000027  55.35999680
H    23.61000061  15.48999977  55.79999924
H    22.47999954  16.15999985  59.92000198
H    14.06000042  15.44999981  59.82999802
H    25.43000031  15.67999935  57.47000122
H    24.84000015  17.01000023  58.43999863
S    13.67000008  14.11999893  55.26000214
C    10.93000031  14.22000027  55.86000061
C    12.23000050  14.47999954  56.22000122
C    12.58999920  15.03999901  57.49000168
C    11.56999969  15.29999924  58.39000320
C    10.22999954  14.92000008  58.11000061
C     9.19000053  14.93999958  59.08000183
C     7.90000010  14.60999966  58.74000168
C     7.60999966  14.15999985  57.42000198
C     8.55000019  14.11999893  56.43000031
C     9.88000011  14.52000046  56.77000046
C    14.01999950  15.00000000  57.75000000
C    14.73999977  14.52000046  56.62000275
C    16.11999893  14.40999985  56.66999817
C     6.34000015  13.34000015  57.31999969
H     5.72898769  13.72365856  56.50294876
H    10.72000027  13.80000019  54.87999725
H    11.76000023  15.67000008  59.38999939
H     9.43000031  15.36000061  60.05000305
H     7.18999958  14.46000004  59.54000092
H     8.30999947  13.61999989  55.48999786
H    16.59000015  14.06000042  55.76000214
H     5.75999975  13.43999958  58.25000000
H     6.67000008  12.30999947  57.14000320
S    17.53999901  15.98000050  54.27000046
C    20.15999985  16.39999962  53.46000290
C    18.92000008  15.88999939  53.15000153
C    18.52000046  15.31000042  51.90000153
C    19.47999954  15.29999924  50.90999985
C    20.78000069  15.77000046  51.18999863
C    21.77000046  15.69000053  50.15999603
C    23.05000114  16.10000038  50.45000076
C    23.42000008  16.68000031  51.69000244
C    22.43999863  16.95000076  52.62000275
C    21.14000130  16.39000130  52.43000031
C    17.06999969  15.29000092  51.77999878
C    16.38000107  15.65000057  52.97000122
C    15.01999950  15.92000008  53.00000000
C    24.86999893  17.05000114  51.90999985
H    25.41752052  16.33893204  52.52862930
H    20.36999893  16.93000031  54.38999939
H    19.25000000  14.91000080  49.92000198
H    21.38000107  15.32999992  49.20999908
H    23.92999840  16.04999924  49.80999756
H    22.60999870  17.53000069  53.52000427
H    14.48999977  16.14999962  53.92000198
H    25.38999939  17.36999893  51.00000000
H    24.73999977  17.98999977  52.44999695
S    13.86000061  14.70999908  49.38999939
C    11.23000050  14.65999985  50.07999802
C    12.46999931  15.19000053  50.37000275
C    12.81999969  15.72999954  51.65000153
C    11.80999947  15.84000015  52.58999634
C    10.47000027  15.51000023  52.25999832
C     9.38000011  15.57999992  53.16999817
C     8.13000011  15.10000038  52.87000275
C     7.79999971  14.55000019  51.59999847
C     8.85999966  14.44000053  50.72000122
C    10.17000008  14.93000031  50.97999954
C    14.26000023  15.72999954  51.84000015
C    14.93000031  15.11999989  50.75000000
C    16.31000137  14.98999977  50.65000153
C     6.43000031  13.99000072  51.32999802
H     5.93291903  14.56519413  50.54887009
H    11.06999969  14.04000092  49.20999908
H    11.97000027  16.01000023  53.64999771
H     9.55000019  15.98000050  54.16999817
H     7.36000013  15.19000053  53.62999725
H     8.78000069  13.75000000  49.87999725
H    16.86000061  14.60999966  49.79000092
H     5.89999962  14.02999973  52.29000092
H     6.47000027  12.94000053  51.00999832
