96

S    16.84999847  16.02000046  60.21999741
C    19.57999992  16.18000031  59.52000046
C    18.29000092  15.81999969  59.20000076
C    17.97000122  15.10000038  58.00000000
C    18.98999977  14.86999989  57.09000015
C    20.28000069  15.36000061  57.36000061
C    21.35999870  15.31999969  56.43000031
C    22.67999840  15.52000046  56.77000046
C    23.03999901  15.77999973  58.11999893
C    22.03000069  16.03999901  59.01000214
C    20.65999985  15.85999966  58.66000366
C    16.54000092  14.84000015  57.84999847
C    15.81999969  15.26999950  58.99000168
C    14.45000076  15.47000027  58.93000031
C    24.50000000  16.10999870  58.34000015
H    24.99907684  15.56101513  59.13852310
H    19.81999969  16.59000015  60.48999786
H    18.76000023  14.70999908  56.04000092
H    21.15999985  14.93000031  55.44000244
H    23.38999939  15.42000008  55.96000290
H    22.25000000  16.46999931  59.99000168
H    13.88000011  15.90000057  59.75000000
H    25.10999870  16.21000099  57.43000031
H    24.59000015  17.17000008  58.60000229
S    13.32999992  14.02999973  55.45999908
C    10.62999916  14.14999962  56.00000000
C    11.89000034  14.55000019  56.35000229
C    12.28000069  15.11000061  57.62000275
C    11.23000050  15.48999977  58.43999863
C     9.89999962  15.10000038  58.16999817
C     8.78999996  15.27999973  59.05000305
C     7.53999996  14.75000000  58.82999802
C     7.28999996  14.02999973  57.63000107
C     8.32999992  13.81999969  56.75000000
C     9.61000061  14.39000034  56.95000076
C    13.71999931  15.06000042  57.81000137
C    14.46000004  14.44000053  56.77000046
C    15.85000038  14.40999985  56.70999908
C     5.89999962  13.50000000  57.32999802
H     5.57897282  14.11351871  56.48819351
H    10.39000034  13.30999947  55.34000015
H    11.46999931  15.98000050  59.38000107
H     8.94999981  15.81999969  59.98000336
H     6.76999998  14.70000076  59.59000015
H     8.23999977  13.22000027  55.84999847
H    16.38000107  14.19999981  55.79000092
H     5.28999996  13.43999958  58.23999786
H     6.00000000  12.44999981  57.04000092
S    13.73999977  12.10000038  52.50999832
C    11.06999969  11.43000031  53.20000076
C    12.42000008  11.39000034  53.44999695
C    12.94000053  10.84000015  54.66999817
C    12.06999969  10.32999992  55.61999893
C    10.67000008  10.36999893  55.38999939
C     9.68000031   9.88000011  56.27999878
C     8.31999969  10.00000000  56.09000397
C     7.86000013  10.48999977  54.84000397
C     8.76000023  10.98000050  53.92000198
C    10.15999985  10.95000076  54.18000031
C    14.37999916  10.93000031  54.80999756
C    14.94999981  11.64999962  53.72000122
C    16.28000069  12.06999969  53.68000031
C     6.38999987  10.62000084  54.52000046
H     6.05554199  10.38516903  53.50951004
H    10.62000084  11.79999924  52.29000092
H    12.41000080   9.72999954  56.45999908
H    10.07999992   9.48000050  57.21000290
H     7.65999985   9.72999954  56.90999985
H     8.45000076  11.39000034  52.95999908
H    16.64999962  12.48000050  52.74000168
H     5.78000021   9.96000004  55.14999771
H     6.25999975  11.71000004  54.59000015
S    17.70000076  10.65000057  57.11000061
C    20.38999939  11.06999969  56.32999802
C    19.04000092  11.13999939  56.05999756
C    18.57999992  11.65999985  54.80999756
C    19.50000000  12.30000019  54.00000000
C    20.88000107  12.41000080  54.29000092
C    21.84000015  13.09000015  53.48999786
C    23.16999817  12.97999954  53.81999969
C    23.59999847  12.42000008  55.05000305
C    22.67999840  11.77000046  55.84000015
C    21.31000137  11.73999977  55.48999786
C    17.12000084  11.69999981  54.72999954
C    16.52000046  11.14999962  55.89000320
C    15.19000053  10.72000027  55.93000031
C    25.05000114  12.68000031  55.38000107
H    25.36258507  12.15429115  56.28223419
H    20.85000038  10.39999962  57.04999924
H    19.17000008  12.67000008  53.02999878
H    21.42000008  13.69999981  52.69000244
H    23.92000008  13.35000038  53.11999893
H    23.01000214  11.36999989  56.79999924
H    14.84000015  10.25000000  56.84000015
H    25.13999939  13.76999950  55.43000031
H    25.69999886  12.51000023  54.51000214
