96

S    16.69000053  15.62000084  60.30000305
C    19.44000053  15.71000004  59.65000153
C    18.13999939  15.48999977  59.27999878
C    17.78000069  15.08999920  57.95000076
C    18.78999901  14.94999981  57.01000214
C    20.12000084  15.29000092  57.36000061
C    21.19999886  15.24000072  56.43000031
C    22.50000000  15.59000015  56.72000122
C    22.72999954  16.15999985  57.98999786
C    21.84000015  15.90000057  59.01000214
C    20.50000000  15.51000023  58.73000336
C    16.34000015  15.06000042  57.72999573
C    15.62999916  15.44000053  58.89999771
C    14.23999977  15.42000008  58.94000244
C    24.11999893  16.67000008  58.31999969
H    24.66752243  15.95893383  58.93862915
H    19.75000000  16.28000069  60.52999878
H    18.71999931  14.60000038  55.97999954
H    20.89999962  14.92000008  55.44000244
H    23.36000061  15.55999947  56.05999756
H    22.10000038  16.10999870  60.04000092
H    13.73999977  15.53999996  59.89999771
H    24.63999939  16.87000084  57.36999893
H    24.11000061  17.64000130  58.81999969
S    13.12999916  14.25000000  55.35999680
C    10.43000031  14.09999943  55.98999786
C    11.69999981  14.44000053  56.39999771
C    12.05999947  14.96999931  57.69000244
C    11.00000000  15.17000008  58.55999756
C     9.65999985  14.89999962  58.18999863
C     8.56000042  15.03999901  59.08000183
C     7.30000019  14.60999966  58.74000168
C     7.00999975  14.04999924  57.47000122
C     8.02999973  13.97999954  56.55000305
C     9.36999989  14.32999992  56.90000153
C    13.48999977  15.15999985  57.78999710
C    14.22999954  14.88000011  56.60999680
C    15.60999966  14.75000000  56.58000183
C     5.59999990  13.63999939  57.11000061
H     5.18685865  14.23834133  56.29796600
H    10.14999962  13.52000046  55.11000061
H    11.10000038  15.46000004  59.59999847
H     8.71999931  15.31000042  60.12000275
H     6.51999998  14.73000050  59.47999954
H     7.90000010  13.61999989  55.54000092
H    16.11999893  14.39000034  55.68999863
H     5.07000017  13.92000008  58.02999878
H     5.51999998  12.56000042  56.93000031
S    13.64999962  12.46999931  52.54000092
C    11.00999928  11.89000034  53.23999786
C    12.35000038  11.77999973  53.53000259
C    12.76000023  11.05000019  54.68999863
C    11.78999996  10.47000027  55.50000000
C    10.40999985  10.48999977  55.20000076
C     9.36999989   9.92999935  56.00000000
C     8.06999969  10.11000061  55.61999893
C     7.65999985  10.86999989  54.47999954
C     8.65999985  11.32999992  53.64999771
C    10.03000069  11.26000023  54.03999710
C    14.19999981  11.21999931  54.82999802
C    14.78999996  12.02000046  53.81999969
C    16.11999893  12.42000008  53.85000229
C     6.19000006  11.00000000  54.15999985
H     5.81762838  10.19796944  53.52267075
H    10.84000015  12.34000015  52.25999832
H    12.10000038  10.06000042  56.45999908
H     9.55000019   9.36999989  56.90999985
H     7.25000000   9.71000004  56.20999908
H     8.38000011  11.73999977  52.69000244
H    16.46999931  12.94999981  52.97000122
H     5.61999989  10.97000027  55.10000229
H     6.01999998  12.03999996  53.85000229
S    17.54999924  10.65999985  57.14000320
C    20.23999977  11.21000099  56.42000198
C    18.89000130  11.33999920  56.19999695
C    18.34000015  12.00000000  55.06000137
C    19.22000122  12.51999950  54.12000275
C    20.61000061  12.51999950  54.38000107
C    21.52000046  13.07999992  53.43000031
C    22.88000107  13.07999992  53.63999939
C    23.38999939  12.39999962  54.78000259
C    22.56000137  11.65999985  55.58000183
C    21.14999962  11.76000023  55.47999954
C    16.88999939  11.97000027  54.93000031
C    16.34000015  11.10999966  55.90999985
C    15.01999950  10.69000053  55.83000183
C    24.89999962  12.38000011  54.93999863
H    25.14866829  11.91108418  55.89204025
H    20.51000214  10.65000057  57.31999969
H    18.81000137  12.86000061  53.18000031
H    21.21999931  13.53000069  52.49000168
H    23.61999893  13.57999992  53.02000046
H    23.03999901  10.98999977  56.29000092
H    14.55999947   9.96000004  56.49000168
H    25.31999969  13.38999939  54.89999771
H    25.26000023  11.73999977  54.13000107
