96

S    16.54999924  15.64000034  60.50000000
C    19.29000092  15.65999985  59.89999771
C    18.01000023  15.31000042  59.54999924
C    17.63000107  14.96000099  58.20999908
C    18.61999893  14.84000015  57.25000000
C    19.95000076  15.18000031  57.57999802
C    21.02000046  15.06999969  56.63999939
C    22.34000015  15.26000023  56.97000122
C    22.67999840  15.80999947  58.22999954
C    21.64999962  16.00000000  59.13000107
C    20.29999924  15.59999943  58.90999603
C    16.18999863  14.80999947  58.01000214
C    15.47000027  15.22999954  59.15000153
C    14.09000015  15.39000034  59.15000153
C    24.13000107  16.03000069  58.57999802
H    24.40845490  15.57304764  59.52960587
H    19.40000153  15.98000050  60.93000031
H    18.35000038  14.53999996  56.24000168
H    20.76999855  14.68000031  55.65000153
H    23.16999817  14.93000031  56.36000061
H    22.03000069  16.38000107  60.07999802
H    13.60000038  15.71000004  60.06999969
H    24.89000130  15.80000019  57.81000137
H    24.27999878  17.11000061  58.73000336
S    13.02000046  14.45000076  55.45000076
C    10.32999992  14.09999943  56.30000305
C    11.57999992  14.63999939  56.46999741
C    11.97999954  15.19000053  57.72999573
C    10.98000050  15.34000015  58.68000031
C     9.63000011  14.98000050  58.50999832
C     8.60999966  14.96999931  59.51000214
C     7.31999969  14.61999989  59.18000031
C     7.03000021  14.14000034  57.87000275
C     8.01999950  13.86000061  56.95999908
C     9.30999947  14.39000034  57.23999786
C    13.40000057  15.01999950  57.98999786
C    14.09999943  14.56999969  56.84999847
C    15.48999977  14.47000027  56.84999847
C     5.60999966  13.78999901  57.49000168
H     5.29123116  14.32836533  56.59745026
H    10.15999985  13.38000107  55.50000000
H    11.18000031  15.51000023  59.73999786
H     8.82999992  15.21999931  60.54000092
H     6.56000042  14.61999989  59.94999695
H     7.86999989  13.09000015  56.19999695
H    15.90999985  14.55000019  55.84999847
H     4.99000025  14.09000015  58.34000015
H     5.56999969  12.69999981  57.36000061
S    17.10000038  16.18999863  54.34000015
C    19.79999924  16.14999962  53.75000000
C    18.53000069  15.81999969  53.34999847
C    18.26000023  15.48999977  51.97999954
C    19.27999878  15.44000053  51.04999924
C    20.59000015  15.80999947  51.44000244
C    21.65999985  15.73999977  50.50000000
C    22.93000031  16.13000107  50.86999893
C    23.22000122  16.55999947  52.18999863
C    22.19000053  16.57999992  53.11000061
C    20.86999893  16.13000107  52.81000137
C    16.80999947  15.52999973  51.81999969
C    16.03999901  15.85000038  52.95999908
C    14.65000057  15.80000019  52.97000122
C    24.67000008  16.77999878  52.52999878
H    24.94731712  16.36046982  53.49705124
H    19.97999954  16.60000038  54.72000122
H    19.15999985  15.01999950  50.05000305
H    21.42999840  15.26000023  49.55999756
H    23.71999931  15.90999985  50.15999603
H    22.43000031  16.84999847  54.13000107
H    14.19999981  16.28000069  53.82999802
H    25.36000061  16.36000061  51.77999878
H    24.86999893  17.86000061  52.52999878
S    13.61999989  14.84000015  49.29000092
C    10.93000031  14.56999969  49.95999908
C    12.18000031  15.01000023  50.31000137
C    12.51999950  15.54999924  51.59999847
C    11.51999950  15.70000076  52.52999878
C    10.19999981  15.39999962  52.09999847
C     9.11999989  15.39999962  53.02000046
C     7.81000042  15.05000019  52.77000046
C     7.53000021  14.37999916  51.55000305
C     8.52000046  14.39000034  50.59999847
C     9.82999992  14.91000080  50.79000092
C    13.96999931  15.48999977  51.77999878
C    14.73000050  15.19000053  50.63000107
C    16.11999893  15.14999962  50.65999985
C     6.21999979  13.68000031  51.25000000
H     5.66511822  14.16374302  50.44613647
H    10.71000004  13.89999962  49.13000107
H    11.75000000  15.97000027  53.55999756
H     9.34000015  15.62000084  54.06000137
H     7.09999990  15.06000042  53.59000397
H     8.36999989  13.88000011  49.65000153
H    16.67000008  14.80000019  49.79000092
H     5.55999994  13.69999981  52.12999725
H     6.38000011  12.61000061  51.05999756
