96

S    16.77000046  15.88000107  60.07999802
C    19.44000053  16.14999962  59.31000137
C    18.15999985  15.77999973  58.97999573
C    17.81999969  15.17000008  57.72999573
C    18.78000069  15.01999950  56.73999786
C    20.10999870  15.36999893  57.08000183
C    21.22999954  15.18000031  56.22000122
C    22.52000046  15.47000027  56.59999847
C    22.85000038  16.00000000  57.87000275
C    21.80999947  16.11999893  58.77999878
C    20.46999931  15.85000038  58.37999725
C    16.38000107  14.94999981  57.63000107
C    15.71000004  15.15999985  58.86000061
C    14.32000065  15.15999985  58.93000031
C    24.30999947  16.23999977  58.18999863
H    24.72939491  15.50072575  58.87240601
H    19.71999931  16.56999969  60.27999878
H    18.45999908  14.55999947  55.80999756
H    21.04000092  14.78999996  55.21999741
H    23.31999969  15.26000023  55.89000320
H    22.01999855  16.39999962  59.80999756
H    13.80000019  15.40999985  59.85000229
H    24.93000031  16.20000076  57.29000092
H    24.43000031  17.23999977  58.61999893
S    13.15999985  14.06999969  55.22999573
C    10.44999981  13.90999985  56.04000092
C    11.76000023  14.23999977  56.30000305
C    12.13999939  14.85000038  57.54000092
C    11.16000080  15.34000015  58.36999893
C     9.80000019  15.01999950  58.13000107
C     8.85000038  15.21000004  59.18000031
C     7.59999990  14.61999989  59.13000107
C     7.23999977  13.88000011  57.97999954
C     8.14000034  13.66000080  56.95000076
C     9.44000053  14.25000000  56.97999954
C    13.57999992  14.81999969  57.78999710
C    14.23999977  14.52000046  56.56999969
C    15.62999916  14.52999973  56.52999878
C     5.88000011  13.30999947  57.68000031
H     5.38881969  13.80117989  56.84001160
H    10.26999950  13.26000023  55.19000244
H    11.51000023  15.65000057  59.34999847
H     9.11999989  15.72999954  60.08999634
H     6.96000004  14.96000099  59.93000031
H     7.95000029  13.12999916  56.02000427
H    16.13999939  14.19000053  55.63999939
H     5.26000023  13.50000000  58.56999969
H     6.00000000  12.22000027  57.64999771
S    17.61000061  16.28000069  54.05000305
C    20.20999908  16.40999985  53.22000122
C    18.95000076  15.92000008  52.95000076
C    18.57999992  15.39999962  51.66999817
C    19.54000092  15.39999962  50.68000031
C    20.82999992  15.95999908  50.86999893
C    21.87999916  15.95999908  49.91000366
C    23.18000031  16.27000046  50.20999908
C    23.52999878  16.62999916  51.53999710
C    22.53000069  16.76000023  52.48000336
C    21.18000031  16.42000008  52.18999863
C    17.13000107  15.39999962  51.52999878
C    16.52000046  15.86999989  52.71999741
C    15.14000034  15.98999977  52.78999710
C    24.96999931  16.93000031  51.88000107
H    25.36885071  16.26049805  52.64209366
H    20.51000214  16.72999954  54.20999908
H    19.18000031  14.85999966  49.80999756
H    21.56999969  15.59000015  48.93000031
H    24.00000000  16.27000046  49.48999786
H    22.81999969  17.02999878  53.48999786
H    14.73999977  16.48999977  53.67000198
H    25.61000061  16.82999992  50.98999786
H    25.00000000  17.94999886  52.28000259
S    13.68000031  14.52000046  49.45000076
C    11.02000046  14.53999996  50.30000305
C    12.32999992  14.91000080  50.52999878
C    12.81000042  15.40999985  51.77999878
C    11.85999966  15.82999992  52.69000244
C    10.48999977  15.50000000  52.52999878
C     9.50000000  15.69000053  53.53000259
C     8.23000050  15.22999954  53.29999924
C     7.82000017  14.52000046  52.14000320
C     8.73999977  14.39000034  51.12999725
C    10.07999992  14.80999947  51.32999802
C    14.27000046  15.50000000  51.81000137
C    14.89999962  15.01999950  50.63000107
C    16.28000069  15.11999989  50.45000076
C     6.51000023  13.76999950  52.02999878
H     5.88652468  14.26594639  51.28607941
H    10.65000057  14.14000034  49.36000061
H    12.15000057  16.26000023  53.63999939
H     9.80000019  16.10999870  54.48999786
H     7.50999975  15.31999969  54.10999680
H     8.43999958  13.85000038  50.22999573
H    16.77000046  14.70000076  49.58000183
H     6.07999992  13.68999958  53.04000092
H     6.80000019  12.74000072  51.81999969
