96

S    16.29999924  15.70000076  60.45000076
C    19.03000069  15.93000031  59.78000259
C    17.77000046  15.48999977  59.47999954
C    17.43999863  14.93000031  58.20000076
C    18.42000008  14.65000057  57.27000427
C    19.73999977  15.05000019  57.58999634
C    20.76000023  14.80000019  56.63000107
C    22.01999855  15.34000015  56.81000137
C    22.20999908  16.25000000  57.87000275
C    21.28000069  16.47999954  58.87000275
C    20.00999832  15.85000038  58.75999832
C    16.01000023  14.85999966  57.91999817
C    15.27999973  15.26000023  59.06999969
C    13.89000034  15.32999992  59.06000137
C    23.61999893  16.67000008  58.23999786
H    24.15951538  15.94591236  58.85050583
H    19.19000053  16.39000130  60.76000214
H    18.12000084  14.01999950  56.44000244
H    20.46999931  14.29999924  55.72000122
H    22.86000061  14.96999931  56.23000336
H    21.45999908  16.92000008  59.84000397
H    13.35000038  15.76000023  59.89999771
H    24.04000092  16.87999916  57.25000000
H    23.52999878  17.56999969  58.85000229
S    12.86999893  14.06000042  55.48999786
C    10.13000011  13.82999992  56.13999939
C    11.40999985  14.21000004  56.49000168
C    11.72000027  14.75999928  57.77000046
C    10.72999954  14.89999962  58.73000336
C     9.40999985  14.55000019  58.36999893
C     8.34000015  14.75000000  59.27999878
C     7.03999996  14.42000008  58.99000168
C     6.75000000  13.92000008  57.69000244
C     7.73999977  13.67000008  56.76000214
C     9.09000015  13.94000053  57.09999847
C    13.15999985  14.92000008  57.94000244
C    13.94000053  14.53999996  56.81999969
C    15.32999992  14.44000053  56.77999878
C     5.33999968  13.67000008  57.22999954
H     5.01166964  14.19104671  56.33066177
H    10.00000000  13.50000000  55.12000275
H    10.98999977  15.25000000  59.72999954
H     8.75000000  15.13000011  60.20999908
H     6.28000021  14.70000076  59.72000122
H     7.46999979  13.38999939  55.73999786
H    15.85000038  14.04000092  55.91999817
H     4.63000011  13.86999989  58.04000092
H     5.29999971  12.58999920  57.00000000
S    13.67000008  11.92999935  52.56999969
C    10.98999977  11.33999920  53.18999863
C    12.31999969  11.33999920  53.55999756
C    12.81999969  10.84000015  54.80999756
C    11.90999985  10.26000023  55.66999817
C    10.52000046  10.31000042  55.40999985
C     9.48000050  10.00000000  56.32999802
C     8.15999985  10.15999985  56.00000000
C     7.76000023  10.67000008  54.73999786
C     8.69999981  11.03000069  53.80000305
C    10.06999969  10.86999989  54.15999985
C    14.27000046  10.86999989  54.93000031
C    14.85999966  11.50000000  53.81000137
C    16.21999931  11.80999947  53.83999634
C     6.30000019  10.95000076  54.45999908
H     5.85079241  10.42236042  53.61862564
H    10.62000084  11.79999924  52.28000259
H    12.20999908   9.73999977  56.58000183
H     9.77999973   9.63000011  57.29999924
H     7.37999964   9.96999931  56.73999786
H     8.38999939  11.61999893  52.93000031
H    16.69999886  12.50000000  53.15000153
H     5.84000015  10.76000023  55.44000244
H     6.17999983  12.02000046  54.26000214
S    17.52000046  10.46000004  57.36999893
C    20.19000053  11.05000019  56.81000137
C    18.86999893  11.13000011  56.44000244
C    18.42000008  11.57999992  55.15999603
C    19.43000031  12.02000046  54.31999969
C    20.81000137  11.96000004  54.61999893
C    21.78999901  12.48000050  53.72000122
C    23.08000183  12.57999992  54.16999817
C    23.40999985  12.10000038  55.45999908
C    22.56000137  11.47999954  56.35000229
C    21.19999886  11.50000000  55.91999817
C    16.98999977  11.40999985  54.93000031
C    16.39000130  10.72000027  56.02000427
C    15.03000069  10.44000053  56.03000259
C    24.86000061  12.31999969  55.84000015
H    25.23587608  11.73136520  56.67685699
H    20.43999863  10.57999992  57.76000214
H    19.12999916  12.38000011  53.34000015
H    21.45999908  12.89000034  52.77000046
H    23.90999985  12.79999924  53.50000000
H    22.77000046  11.31000042  57.39999771
H    14.47999954  10.07999992  56.88999939
H    24.90999985  13.38000107  56.09000397
H    25.46999931  12.00000000  54.99000168
