96

S    16.55999947  15.39000034  60.20000076
C    19.18000031  15.92000008  59.38999939
C    17.94999886  15.39999962  59.09999847
C    17.65999985  14.78999996  57.83000183
C    18.71000099  14.63999939  56.95000076
C    20.00000000  15.17000008  57.15999985
C    21.09999847  15.03999901  56.25999832
C    22.37999916  15.34999943  56.65999985
C    22.56000137  16.10000038  57.84999847
C    21.51000023  16.31999969  58.72000122
C    20.23999977  15.73999977  58.46000290
C    16.22999954  14.63000107  57.61000061
C    15.53999996  14.96000099  58.81000137
C    14.14999962  15.01999950  58.90999603
C    24.00000000  16.27000046  58.27000046
H    24.29802704  15.60298538  59.07893372
H    19.29999924  16.40999985  60.34999847
H    18.51000023  14.18000031  55.97999954
H    20.75000000  14.63999939  55.31000137
H    23.26000023  15.15999985  56.05999756
H    21.59000015  16.90000153  59.64000320
H    13.50999928  15.42000008  59.68999863
H    24.72999954  16.15999985  57.45999908
H    23.95000076  17.29999924  58.63999939
S    12.97999954  14.22000027  55.19000244
C    10.26999950  14.04000092  55.90999985
C    11.56999969  14.32000065  56.25999832
C    11.92999935  14.65999985  57.60000229
C    10.88999939  15.10000038  58.40000153
C     9.57999992  14.63999939  58.15000153
C     8.59000015  14.86999989  59.13999939
C     7.26000023  14.70000076  58.81000137
C     6.89000034  14.14000034  57.56000137
C     7.82000017  14.01000023  56.55000305
C     9.21000004  14.15999985  56.84000015
C    13.38000107  14.75999928  57.77999878
C    14.06000042  14.40999985  56.59000015
C    15.44999981  14.30999947  56.50000000
C     5.40999985  13.92000008  57.29999924
H     5.15420580  14.30369091  56.31235123
H    10.10000038  13.76000023  54.87999725
H    11.10999966  15.50000000  59.38999939
H     8.92000008  15.14000034  60.13999939
H     6.50000000  14.85999966  59.56999969
H     7.57000017  13.64999962  55.56000137
H    15.84000015  14.07999992  55.51000214
H     4.81999969  14.37000084  58.09999847
H     5.19999981  12.84999943  57.37999725
S    13.12999916  12.15999985  52.70000076
C    10.51000023  11.40999985  53.34000015
C    11.85999966  11.32999992  53.61000061
C    12.38999939  10.67999935  54.77000427
C    11.46000004  10.08999920  55.61999893
C    10.06999969  10.34000015  55.50000000
C     9.11000061  10.01999950  56.50000000
C     7.76000023  10.11999989  56.25999832
C     7.27999973  10.53999996  54.99000168
C     8.18000031  11.03999996  54.08000183
C     9.57999992  11.00999928  54.33000183
C    13.81999969  10.88000107  54.93999863
C    14.35999966  11.65999985  53.88000107
C    15.67999935  12.05999947  53.82999802
C     5.78999996  10.39999962  54.77000427
H     5.51931047  10.67781258  53.75135422
H    10.11000061  12.02999973  52.55000305
H    11.85999966   9.50000000  56.44000244
H     9.44000053   9.27999973  57.21000290
H     7.13999987   9.56999969  56.97000122
H     7.94000053  11.44999981  53.09999847
H    16.10000038  12.68000031  53.04000092
H     5.51000023   9.35999966  54.94999695
H     5.23999977  11.05999947  55.45999908
S    17.07999992  10.53999996  57.25999832
C    19.71999931  11.18999958  56.60999680
C    18.37000084  11.32999992  56.33999634
C    17.88999939  11.82000065  55.07999802
C    18.84000015  12.35999966  54.23999786
C    20.22000122  12.18999958  54.50000000
C    21.14000130  12.69999981  53.54999924
C    22.49000168  12.57999992  53.79000092
C    22.95999908  11.82000065  54.88999939
C    22.11000061  11.26000023  55.81999969
C    20.72999954  11.59000015  55.70999908
C    16.46000099  11.61999893  54.89999771
C    15.88999939  10.95000076  56.00999832
C    14.55999947  10.55999947  56.07999802
C    24.41999817  11.47999954  55.07999802
H    24.74821663  11.57989120  56.11459732
H    20.02000046  10.55999947  57.43999863
H    18.43000031  12.75000000  53.30999756
H    20.76999855  13.30000019  52.71999741
H    23.16999817  13.07999992  53.09999847
H    22.53000069  10.64000034  56.59999847
H    14.17000008  10.01000023  56.93999863
H    25.10999870  12.10000038  54.47999954
H    24.61000061  10.42000008  54.87999725
