96

S    16.81999969  15.62999916  60.26000214
C    19.50000000  15.88999939  59.47000122
C    18.22999954  15.44000053  59.19000244
C    17.93000031  14.67000008  58.02000046
C    18.96999931  14.37000084  57.15999985
C    20.29999924  14.75000000  57.41000366
C    21.42000008  14.55000019  56.56000137
C    22.70999908  14.91000080  56.86999893
C    22.89999962  15.85000038  57.90999985
C    21.83000183  16.17000008  58.72000122
C    20.53999901  15.59000015  58.55999756
C    16.48999977  14.60000038  57.81000137
C    15.77999973  14.96999931  58.97999573
C    14.39000034  15.00000000  59.02000046
C    24.30999947  16.13999939  58.36000061
H    24.75892830  15.46304321  59.08683777
H    19.77000046  16.29999924  60.43000031
H    18.78999901  13.96999931  56.16000366
H    21.18000031  13.96000004  55.68000031
H    23.65999985  14.60000038  56.42000198
H    21.93000031  16.70999908  59.65999985
H    13.86000061  15.26999950  59.92000198
H    25.03999901  16.05999947  57.54000092
H    24.37999916  17.13999939  58.80000305
S    13.19000053  13.76000023  55.50000000
C    10.47000027  13.76999950  56.24000168
C    11.78999996  14.01999950  56.55000305
C    12.17000008  14.55999947  57.81999969
C    11.26000023  14.93999958  58.79000092
C     9.89999962  14.73000050  58.46000290
C     8.82000065  15.06000042  59.34000015
C     7.50999975  14.80000019  59.02999878
C     7.13999987  14.14999962  57.81999969
C     8.11999989  13.99000072  56.86999893
C     9.50000000  14.17000008  57.18999863
C    13.61999989  14.70000076  57.88999939
C    14.34000015  14.37000084  56.70999908
C    15.72000027  14.22999954  56.69000244
C     5.66999960  13.90999985  57.56000137
H     5.30513668  14.23909283  56.58702850
H    10.15999985  13.21000004  55.37000275
H    11.56999969  15.47000027  59.68000031
H     9.10000038  15.44999981  60.31000137
H     6.80999994  14.96000099  59.84000397
H     7.94000053  13.55999947  55.89000320
H    16.21999931  13.83999920  55.80999756
H     5.22000027  14.47000027  58.39000320
H     5.49000025  12.82999992  57.62000275
S    13.71999931  11.79999924  52.49000168
C    11.00000000  11.44000053  53.16999817
C    12.34000015  11.26999950  53.47000122
C    12.76000023  10.71000004  54.72000122
C    11.78999996  10.15999985  55.52999878
C    10.40999985  10.31999969  55.26000214
C     9.35999966   9.94000053  56.14999771
C     8.02999973  10.18000031  55.87999725
C     7.59999990  10.90999985  54.73999786
C     8.60999966  11.28999901  53.89999771
C    10.00000000  11.03000069  54.08000183
C    14.19999981  10.72999954  54.93000031
C    14.78999996  11.46999931  53.87000275
C    16.14999962  11.76000023  53.87000275
C     6.19999981  11.35000038  54.38000107
H     5.65376568  10.66898155  53.72735977
H    10.75000000  12.02999973  52.29000092
H    12.20000076   9.73999977  56.44000244
H     9.59999943   9.52999973  57.11999893
H     7.36999989  10.05000019  56.72999954
H     8.27000046  11.84999943  53.02999878
H    16.57999992  12.25000000  53.00000000
H     5.80999947  11.46000004  55.40000153
H     6.28000021  12.35000038  53.95000076
S    17.43000031  10.24000072  57.31999969
C    20.13999939  10.57000065  56.56000137
C    18.79999924  10.77000046  56.31000137
C    18.39999962  11.36000061  55.06999969
C    19.32999992  11.95000076  54.22000122
C    20.72000122  11.84000015  54.47000122
C    21.77000046  12.25000000  53.60000229
C    23.06999969  11.97999954  53.95000076
C    23.43000031  11.31999969  55.15999603
C    22.43999863  10.85999966  55.98999786
C    21.07999992  11.09000015  55.63999939
C    16.95999908  11.30000019  54.92000198
C    16.31999969  10.62000084  55.98999786
C    14.96000099  10.34999943  56.04000092
C    24.86000061  10.93999958  55.45000076
H    25.30120087  11.48794174  56.28258896
H    20.43000031  10.24000072  57.56000137
H    18.98999977  12.48999977  53.34999847
H    21.44000053  12.67000008  52.64999771
H    23.81000137  12.18000031  53.18000031
H    22.70000076  10.40999985  56.93999863
H    14.50000000   9.84000015  56.88999939
H    25.52000046  11.13999939  54.59999847
H    24.87999916   9.89000034  55.76000214
