96

S    16.31000137  15.73999977  60.13000107
C    19.03000069  15.59000015  59.62999725
C    17.76000023  15.29999924  59.20000076
C    17.43999863  14.68000031  57.95000076
C    18.50000000  14.34000015  57.11999893
C    19.82999992  14.65000057  57.47000122
C    20.81999969  14.68000031  56.44000244
C    22.11000061  14.98999977  56.79000092
C    22.40999985  15.62999916  58.02999878
C    21.40999985  15.77000046  58.95999908
C    20.09000015  15.29999924  58.73000336
C    16.02000046  14.67000008  57.63999939
C    15.31999969  15.15999985  58.77999878
C    13.93000031  15.22999954  58.81000137
C    23.75999832  16.25000000  58.27999878
H    24.37911606  15.58107090  58.87776947
H    19.17000008  16.21999931  60.51000214
H    18.32999992  14.06000042  56.07999802
H    20.62000084  14.27999973  55.45000076
H    22.86000061  14.78000069  56.04000092
H    21.67000008  16.21999931  59.92000198
H    13.35000038  15.48999977  59.68999863
H    24.15999985  16.45000076  57.27000427
H    23.65999985  17.23999977  58.75000000
S    12.81999969  14.09000015  55.19000244
C    10.07999992  13.89000034  55.96000290
C    11.39999962  14.18000031  56.25999832
C    11.77000046  14.65999985  57.55000305
C    10.78999996  14.93000031  58.48999786
C     9.42000008  14.78000069  58.18000031
C     8.38000011  15.11000061  59.09999847
C     7.05999947  14.93000031  58.76999664
C     6.75000000  14.45000076  57.47000122
C     7.69999981  14.18000031  56.52000046
C     9.06999969  14.27999973  56.88000107
C    13.21000004  14.75999928  57.70999908
C    13.93000031  14.40000057  56.53999710
C    15.31000042  14.27000046  56.50000000
C     5.31000042  14.09999943  57.15999985
H     4.98298550  14.54786777  56.22161102
H     9.80000019  13.55000019  54.97000122
H    10.98000050  15.32999992  59.47999954
H     8.55000019  15.57999992  60.06999969
H     6.30999994  14.98999977  59.55999756
H     7.36999989  13.69999981  55.59999847
H    15.76000023  13.90999985  55.58000183
H     4.53000021  14.37999916  57.87000275
H     5.19000006  13.01000023  57.04999924
S    17.14999962  16.00000000  54.15999985
C    19.84000015  16.01000023  53.68999863
C    18.60999870  15.59000015  53.23999786
C    18.26000023  15.21999931  51.90000153
C    19.30999947  15.19999981  51.00999832
C    20.62999916  15.51000023  51.42000198
C    21.70000076  15.46000004  50.48999786
C    22.98999977  15.76000023  50.86999893
C    23.32999992  16.13999939  52.19999695
C    22.27999878  16.18999863  53.08000183
C    20.92000008  15.88999939  52.77999878
C    16.82999992  15.21999931  51.63000107
C    16.10000038  15.67999935  52.76000214
C    14.73000050  15.85999966  52.76000214
C    24.73999977  16.51000023  52.58999634
H    25.13061333  15.84950924  53.36412430
H    20.06999969  16.40999985  54.66999817
H    19.14999962  14.84000015  50.00000000
H    21.47999954  15.19999981  49.45999908
H    23.69999886  15.51000023  50.08999634
H    22.46999931  16.51000023  54.09999847
H    14.28999996  16.10999870  53.73000336
H    25.29999924  16.36000061  51.65999985
H    24.84000015  17.60000038  52.69000244
S    13.67000008  14.67000008  49.13999939
C    10.90999985  14.59000015  49.78000259
C    12.20000076  14.93000031  50.11000061
C    12.58999920  15.50000000  51.37000275
C    11.61999893  15.67000008  52.34000397
C    10.27999973  15.31000042  52.04000092
C     9.23999977  15.34999943  53.01000214
C     7.99000025  14.80999947  52.83000183
C     7.62000036  14.32000065  51.55000305
C     8.56000042  14.34999943  50.54000092
C     9.90999985  14.72000027  50.77999878
C    14.02999973  15.57000065  51.59000015
C    14.75999928  15.14999962  50.45000076
C    16.13000107  14.92000008  50.45000076
C     6.23000050  13.73000050  51.40999603
H     5.66605520  14.26539040  50.64617538
H    10.65999985  14.14999962  48.81999969
H    11.92999935  15.85999966  53.36000061
H     9.46000004  15.69000053  54.02999878
H     7.36999989  14.89999962  53.72000122
H     8.30000019  13.89000034  49.59000015
H    16.61000061  14.50000000  49.56999969
H     5.69000006  13.66000080  52.36000061
H     6.21999979  12.65999985  51.14999771
