96

S    16.72000122  15.69000053  60.40999985
C    19.45000076  15.77999973  59.95999908
C    18.20999908  15.39999962  59.48999786
C    17.94000053  14.77000046  58.22999954
C    18.98999977  14.70999908  57.32999802
C    20.28000069  15.18000031  57.70999908
C    21.35999870  15.06000042  56.79000092
C    22.65999985  15.34000015  57.15000153
C    22.84000015  16.03000069  58.36999893
C    21.84000015  16.10999870  59.31000137
C    20.51000214  15.72999954  59.01000214
C    16.51000023  14.61999989  58.04999924
C    15.69000053  15.11000061  59.09000015
C    14.30999947  15.29000092  59.16999817
C    24.15999985  16.61000061  58.83999634
H    24.66493225  15.94860840  59.54405975
H    19.62000084  16.07999992  60.98999786
H    18.95000076  14.32999992  56.31999969
H    21.11000061  14.73999977  55.79000092
H    23.51000023  15.29999924  56.46999741
H    22.15999985  16.36000061  60.33000183
H    13.73999977  15.72999954  59.98000336
H    24.70000076  16.73999977  57.88999939
H    23.97999954  17.57999992  59.34000015
S    13.31999969  13.96999931  55.63000107
C    10.54999924  13.89999962  56.26999664
C    11.84000015  14.27999973  56.55000305
C    12.20000076  14.91000080  57.78999710
C    11.21000099  15.21999931  58.70999908
C     9.86999989  14.89999962  58.40999985
C     8.80999947  15.05000019  59.34000015
C     7.53999996  14.59000015  59.06999969
C     7.23999977  13.90999985  57.85999680
C     8.22000027  13.67000008  56.93000031
C     9.52000046  14.19000053  57.19999695
C    13.63999939  14.92000008  57.98999786
C    14.44000053  14.48999977  56.90000153
C    15.80999947  14.29999924  56.88000107
C     5.82999992  13.42000008  57.57999802
H     5.31548405  14.07029057  56.87253952
H    10.36999893  13.52000046  55.27000046
H    11.47999954  15.47000027  59.72999954
H     9.15999985  15.42000008  60.30000305
H     6.74000025  14.63999939  59.80999756
H     8.03999996  13.19000053  55.97999954
H    16.22999954  13.78000069  56.00999832
H     5.22000027  13.35999966  58.48999786
H     6.01999998  12.41000080  57.19999695
S    17.27000046  16.39000130  54.36999893
C    19.95000076  16.36999893  53.68000031
C    18.65999985  16.10000038  53.29999924
C    18.25000000  15.65000057  52.00000000
C    19.27000046  15.55999947  51.06999969
C    20.59999847  15.93999958  51.38000107
C    21.68000031  15.75000000  50.47000122
C    22.95999908  16.11999893  50.83000183
C    23.31999969  16.59000015  52.11000061
C    22.32999992  16.62999916  53.06000137
C    20.98999977  16.31000137  52.70999908
C    16.80999947  15.57999992  51.86000061
C    16.15999985  16.03999901  53.04000092
C    14.77000046  16.02000046  53.13999939
C    24.76000023  16.97000122  52.39999771
H    25.28673935  16.35072517  53.12604523
H    20.29000092  16.54000092  54.69999695
H    19.14999962  15.17000008  50.06000137
H    21.42999840  15.22999954  49.54999924
H    23.78000069  15.93000031  50.14999771
H    22.60000038  16.94000053  54.06999969
H    14.35999966  16.35000038  54.09000015
H    25.31999969  17.06999969  51.45999908
H    24.67000008  17.97999954  52.81999969
S    13.60000038  14.75999928  49.54000092
C    10.90999985  14.47000027  50.28999710
C    12.17000008  14.93999958  50.58000183
C    12.55000019  15.57999992  51.79999924
C    11.57999992  15.67999935  52.77999878
C    10.26000023  15.25000000  52.52999878
C     9.28999996  15.47000027  53.54999924
C     7.99000025  15.08999920  53.30999756
C     7.63000011  14.55000019  52.04999924
C     8.55000019  14.27999973  51.05999756
C     9.89999962  14.65000057  51.26999664
C    13.99000072  15.70000076  52.02000046
C    14.67000008  15.31999969  50.84000015
C    16.03999901  15.11999989  50.77999878
C     6.19999981  14.14999962  51.76000214
H     5.78111124  14.71798420  50.92932510
H    10.57000065  13.99000072  49.36999893
H    11.82999992  16.09000015  53.75000000
H     9.55000019  15.78999996  54.54999924
H     7.26999998  15.08999920  54.13000107
H     8.26000023  13.78000069  50.13000107
H    16.56999969  14.78999996  49.88999939
H     5.52999973  14.11000061  52.62000275
H     6.25000000  13.12000084  51.36000061
