96

S    16.68000031  15.54999924  60.12000275
C    19.31999969  15.90999985  59.31000137
C    18.07999992  15.36000061  59.06000137
C    17.81999969  14.93000031  57.71999741
C    18.78000069  14.85999966  56.72999954
C    20.07999802  15.31000042  57.02999878
C    21.11000061  15.18000031  56.04999924
C    22.36999893  15.65000057  56.33999634
C    22.65000153  16.21999931  57.60000229
C    21.68000031  16.31000137  58.57999802
C    20.35000038  15.85000038  58.33000183
C    16.36999893  14.82999992  57.58999634
C    15.62000084  15.14000034  58.75999832
C    14.23999977  15.22999954  58.85000229
C    24.09000015  16.39999962  58.02000046
H    24.53835297  15.65274239  58.67473984
H    19.55000114  16.34000015  60.27999878
H    18.47999954  14.48999977  55.75000000
H    20.81999969  14.89999962  55.04000092
H    23.12999916  15.48999977  55.58000183
H    22.01000023  16.52000046  59.59000015
H    13.73999977  15.44000053  59.79000092
H    24.77999878  16.48999977  57.18000031
H    24.18999863  17.32999992  58.60000229
S    13.07000065  14.22000027  55.27999878
C    10.31999969  14.19000053  55.87999725
C    11.61000061  14.52999973  56.23000336
C    12.02999973  15.06000042  57.49000168
C    11.02000046  15.19999981  58.43000031
C     9.67000008  14.89999962  58.11999893
C     8.67999935  15.05000019  59.12000275
C     7.37999964  14.65000057  58.88000107
C     7.03000021  14.17000008  57.58999634
C     7.95000029  13.94999981  56.59000015
C     9.30999947  14.27000046  56.86999893
C    13.47000027  15.14999962  57.68000031
C    14.19999981  14.80999947  56.51000214
C    15.57999992  14.63999939  56.45999908
C     5.56999969  14.00000000  57.25000000
H     5.11424685  14.98271751  57.12894058
H    10.14999962  13.73999977  54.91000366
H    11.39999962  15.51000023  59.40000153
H     8.94999981  15.34999943  60.13000107
H     6.67999983  14.73999977  59.69999695
H     7.75000000  13.67000008  55.56000137
H    16.09000015  14.37000084  55.54000092
H     5.13999987  13.35999966  58.02000046
H     5.65000010  13.47000027  56.29000092
S    13.43000031  12.25999928  52.30999756
C    10.77999973  11.79999924  53.09999847
C    12.13000107  11.67000008  53.34999847
C    12.65999985  11.02000046  54.51000214
C    11.72000027  10.65999985  55.45999908
C    10.32999992  10.75000000  55.25000000
C     9.43000031  10.36000061  56.29000092
C     8.10999966  10.31000042  55.91999817
C     7.57999992  10.59999943  54.62999725
C     8.43000031  11.21000099  53.74000168
C     9.81999969  11.28999901  54.02000046
C    14.11000061  11.14999962  54.55999756
C    14.70999908  11.77999973  53.44999695
C    16.01000023  12.23999977  53.57999802
C     6.11000013  10.32999992  54.36999893
H     5.68891716  10.95805645  53.58493042
H    10.36999893  12.32999992  52.25000000
H    12.02000046  10.31000042  56.45000076
H     9.86999989   9.94999981  57.18999863
H     7.46000004   9.85999966  56.65999985
H     8.01999950  11.82000065  52.94000244
H    16.47999954  12.93000031  52.87000275
H     6.00000000   9.26000023  54.16999817
H     5.61999989  10.44000053  55.34999847
S    17.27000046  10.88000107  57.06999969
C    20.02000046  11.28000069  56.46999741
C    18.68999863  11.42000008  56.14999771
C    18.27999878  11.94000053  54.87999725
C    19.27000046  12.30999947  53.99000168
C    20.65000153  12.18999958  54.27999878
C    21.64999962  12.57999992  53.34000015
C    22.95999908  12.20999908  53.54000092
C    23.36000061  11.63000011  54.77000427
C    22.43000031  11.43000031  55.76000214
C    21.04000092  11.64999962  55.56000137
C    16.84999847  11.85999966  54.62999725
C    16.18000031  11.19999981  55.70000076
C    14.82999992  10.86999989  55.72999954
C    24.77999878  11.19999981  55.06999969
H    25.23366547  11.83796883  55.82847214
H    20.34000015  10.65000057  57.29999924
H    19.00000000  12.79000092  53.06000137
H    21.28000069  13.12000084  52.47000122
H    23.71000099  12.35999966  52.77000046
H    22.75000000  10.90000057  56.65000153
H    14.47999954  10.40999985  56.63999939
H    25.40999985  11.06999969  54.18000031
H    24.75000000  10.19000053  55.50000000
