96

S    16.48999977  15.43000031  60.58000183
C    19.20999908  15.46000004  60.00999832
C    17.92000008  15.31000042  59.54000092
C    17.61999893  15.03999901  58.16999817
C    18.67000008  14.81999969  57.29999924
C    20.00000000  15.05000019  57.72999573
C    21.02000046  14.70000076  56.81000137
C    22.32999992  14.85999966  57.19999695
C    22.60000038  15.31999969  58.52000427
C    21.63999939  15.55999947  59.47999954
C    20.28000069  15.44000053  59.09000015
C    16.18000031  14.91000080  57.97999954
C    15.44999981  15.22999954  59.15000153
C    14.06000042  15.19000053  59.23999786
C    24.02000046  15.67999935  58.88000107
H    24.46082497  15.08986282  59.68343735
H    19.48999977  15.55999947  61.05999756
H    18.55999947  14.40000057  56.30000305
H    20.88000107  14.32999992  55.79999924
H    23.13999939  14.78999996  56.47999573
H    21.93000031  15.88999939  60.47000122
H    13.55999947  15.46000004  60.15999603
H    24.56000137  15.50000000  57.94000244
H    24.10000038  16.77000046  58.99000168
S    13.02999973  13.82999992  55.65999985
C    10.29999924  13.97999954  56.38999939
C    11.61999893  14.25000000  56.65000153
C    11.89000034  14.88999939  57.90000153
C    10.90000057  15.14000034  58.83999634
C     9.52999973  14.89999962  58.54999924
C     8.42000008  15.14999962  59.40000153
C     7.11000013  14.85000038  59.09999847
C     6.85999966  14.07999992  57.93000031
C     7.90000010  13.85000038  57.06999969
C     9.25000000  14.22000027  57.31999969
C    13.32999992  14.86999989  58.09000015
C    14.06999969  14.45000076  56.95999908
C    15.46000004  14.42000008  56.88999939
C     5.52999973  13.45000076  57.58999634
H     5.02475405  14.06198788  56.84280396
H    10.08999920  13.52000046  55.43000031
H    11.11999989  15.47999954  59.84000397
H     8.69999981  15.57999992  60.35999680
H     6.25999975  15.11999989  59.72000122
H     7.82000017  13.15000057  56.24000168
H    15.95000076  13.85000038  56.10000229
H     4.92999983  13.35999966  58.50000000
H     5.72000027  12.42000008  57.25000000
S    13.68999958  11.94000053  52.69000244
C    11.02000046  11.26000023  53.29000092
C    12.35999966  11.13999939  53.55999756
C    12.84000015  10.55999947  54.78000259
C    11.94000053  10.06000042  55.68999863
C    10.57000065  10.06000042  55.31999969
C     9.65999985   9.59000015  56.30000305
C     8.30000019   9.76000023  56.17000198
C     7.77999973  10.52000046  55.08999634
C     8.64000034  10.93999958  54.10999680
C    10.03999901  10.65999985  54.13000107
C    14.27000046  10.73999977  54.99000168
C    14.86999989  11.43000031  53.90999603
C    16.17000008  11.92000008  53.97999573
C     6.32000017  10.81999969  54.82999802
H     5.83773422  10.35191822  53.97184753
H    10.62000084  11.75000000  52.41000366
H    12.28000069   9.70000076  56.65999985
H    10.11999989   9.04999924  57.11999893
H     7.53000021   9.40999985  56.86000061
H     8.34000015  11.59000015  53.29000092
H    16.73999977  12.27000046  53.13000107
H     5.73000002  10.50000000  55.70000076
H     6.21999979  11.90999985  54.82999802
S    17.53000069  10.53999996  57.50000000
C    20.19000053  10.80000019  56.56000137
C    18.84000015  11.03000069  56.40999603
C    18.35000038  11.64000034  55.21999741
C    19.26000023  12.15999985  54.31999969
C    20.65999985  12.02000046  54.48999786
C    21.63000107  12.69999981  53.70999908
C    22.96999931  12.46999931  53.89999771
C    23.40999985  11.56000042  54.89999771
C    22.52000046  10.93000031  55.73999786
C    21.14000130  11.23999977  55.59999847
C    16.90000153  11.56999969  55.12000275
C    16.32999992  10.90999985  56.24000168
C    15.01000023  10.48999977  56.14999771
C    24.86999893  11.42000008  55.27000046
H    25.19072533  11.71934414  56.26781082
H    20.45999908  10.06999969  57.31999969
H    18.85000038  12.72999954  53.48999786
H    21.25000000  13.36999989  52.95000076
H    23.71999931  12.96000004  53.27999878
H    22.88999939  10.31999969  56.56999969
H    14.53999996  10.01999950  57.02000046
H    25.48000145  11.90999985  54.50000000
H    25.03000069  10.32999992  55.21999741
