96

S    16.39999962  16.13999939  60.31000137
C    19.13999939  16.05999947  59.69999695
C    17.85000038  15.70000076  59.38000107
C    17.52000046  15.14000034  58.11000061
C    18.53000069  14.85999966  57.21000290
C    19.88999939  15.10000038  57.52999878
C    20.98999977  14.78999996  56.68000031
C    22.29999924  15.11999989  56.95000076
C    22.53999901  15.80000019  58.18000031
C    21.53000069  16.10000038  59.06000137
C    20.17999840  15.76000023  58.77999878
C    16.07999992  15.11999989  57.90999985
C    15.31999969  15.62000084  59.00000000
C    13.94000053  15.78999996  58.99000168
C    23.92000008  16.31000137  58.48999786
H    24.50328445  15.64135551  59.12307739
H    19.31999969  16.68000031  60.58000183
H    18.34000015  14.15999985  56.39999771
H    20.76999855  14.40000057  55.68999863
H    23.02000046  14.93000031  56.16000366
H    21.73000145  16.70999908  59.93999863
H    13.40000057  16.03999901  59.88999939
H    24.47000122  16.47999954  57.55000305
H    23.75999832  17.34000015  58.85000229
S    12.89000034  13.96999931  55.54999924
C    10.18000031  13.93000031  56.25000000
C    11.46999931  14.29999924  56.56000137
C    11.85999966  15.06999969  57.70999908
C    10.80999947  15.47000027  58.50999832
C     9.47000027  15.14000034  58.22000122
C     8.31999969  15.47999954  58.99000168
C     7.05999947  14.96000099  58.86000061
C     6.76000023  14.11999893  57.75000000
C     7.81000042  13.76000023  56.93999863
C     9.11000061  14.28999996  57.11000061
C    13.28999996  15.32999992  57.84000015
C    13.96000004  14.68000031  56.77999878
C    15.34999943  14.63000107  56.81999969
C     5.32999992  13.73000050  57.43999863
H     4.98995876  14.28965187  56.56864166
H     9.89999962  13.31999969  55.40000153
H    11.03000069  15.93999958  59.47000122
H     8.40999985  16.18000031  59.81999969
H     6.32000017  15.26000023  59.59999847
H     7.53999996  13.03999996  56.16000366
H    15.82999992  14.15999985  55.96000290
H     4.63000011  13.89000034  58.27000046
H     5.31000042  12.64999962  57.23999786
S    16.95999908  16.22999954  54.47999954
C    19.67000008  16.28999901  53.73000336
C    18.36000061  16.06999969  53.40000153
C    18.06999969  15.62999916  52.06999969
C    19.10000038  15.52000046  51.14999771
C    20.45999908  15.72999954  51.46999741
C    21.52000046  15.53999996  50.54999924
C    22.80999947  15.65999985  51.00999832
C    23.12000084  16.17000008  52.29999924
C    22.10000038  16.34000015  53.20999908
C    20.75000000  16.10999870  52.83000183
C    16.61999893  15.51000023  51.97999954
C    15.85999966  15.84000015  53.13999939
C    14.47000027  15.93000031  53.18000031
C    24.48999786  16.73999977  52.58999634
H    25.02180862  16.13019371  53.32034683
H    20.05000114  16.36999893  54.75000000
H    19.00000000  14.98999977  50.20000076
H    21.25999832  15.32999992  49.52000046
H    23.61000061  15.39999962  50.31999969
H    22.34999847  16.86000061  54.13999939
H    13.92000008  16.06999969  54.09999847
H    25.05000114  16.81999969  51.65000153
H    24.37000084  17.71000099  53.08000183
S    13.40999985  14.70999908  49.54000092
C    10.72000027  14.65000057  50.21999741
C    12.01000023  14.92000008  50.59999847
C    12.35999966  15.36000061  51.91999817
C    11.31000042  15.51000023  52.80000305
C     9.96000004  15.26999950  52.47000122
C     8.85000038  15.39000034  53.36000061
C     7.57999992  15.13000011  52.90999985
C     7.30999994  14.57999992  51.62000275
C     8.36000061  14.32999992  50.77000046
C     9.65999985  14.78000069  51.14999771
C    13.78999901  15.60999966  51.98999786
C    14.51000023  15.26000023  50.81999969
C    15.90000057  15.24000072  50.80999756
C     5.92999983  14.09999943  51.24000168
H     5.51855135  14.65332794  50.39582443
H    10.55999947  14.34999943  49.18000031
H    11.51999950  15.95999908  53.76999664
H     8.97999954  15.67999935  54.40000153
H     6.76000023  15.14000034  53.61000061
H     8.14000034  13.96999931  49.77000427
H    16.38000107  14.80999947  49.93999863
H     5.18000031  14.23999977  52.02000046
H     5.92000008  13.03999996  50.94999695
