96

S    16.27000046  15.73999977  60.25000000
C    19.03000069  15.67999935  59.65000153
C    17.72999954  15.43000031  59.29000092
C    17.42000008  14.86999989  58.01000214
C    18.46999931  14.63999939  57.15000153
C    19.79999924  15.01000023  57.45999908
C    20.89999962  14.80999947  56.58000183
C    22.20000076  15.21999931  56.77000046
C    22.47999954  15.81999969  58.02000046
C    21.47000122  15.97000027  58.95000076
C    20.10999870  15.57999992  58.74000168
C    15.98000050  14.72000027  57.83000183
C    15.22999954  15.31000042  58.88000107
C    13.86000061  15.51000023  58.82999802
C    23.84000015  16.36999893  58.37999725
H    24.39617348  15.85660934  59.16434479
H    19.27999878  16.02000046  60.65000153
H    18.42000008  14.01999950  56.25999832
H    20.58000183  14.40999985  55.61999893
H    22.98000145  15.01999950  56.04000092
H    21.68000031  16.39999962  59.92000198
H    13.25000000  15.65999985  59.71000290
H    24.47999954  16.26000023  57.49000168
H    23.88000107  17.40999985  58.70999908
S    12.79000092  13.78000069  55.38999939
C    10.03999901  13.90999985  56.07999802
C    11.36000061  14.22000027  56.35000229
C    11.73999977  14.92000008  57.54000092
C    10.75000000  15.14000034  58.47000122
C     9.38000011  14.80000019  58.30999756
C     8.43000031  14.78000069  59.36999893
C     7.09999990  14.46000004  59.16999817
C     6.76000023  14.01999950  57.87000275
C     7.67000008  13.94000053  56.84000015
C     9.04999924  14.22000027  57.04000092
C    13.17999935  15.08999920  57.68000031
C    13.86999989  14.39000034  56.65999985
C    15.25000000  14.27000046  56.72000122
C     5.32000017  13.61999989  57.60000229
H     4.78390884  14.22757053  56.87091827
H     9.78999996  13.38000107  55.15999603
H    11.13999939  15.55999947  59.40000153
H     8.75000000  14.98999977  60.38999939
H     6.37000036  14.51000023  59.97000122
H     7.42999983  13.68000031  55.80999756
H    15.75000000  13.85000038  55.84999847
H     4.76999998  13.69999981  58.54000092
H     5.36999989  12.53000069  57.49000168
S    16.64999962  15.93000031  54.31999969
C    19.36000061  15.98999977  53.66000366
C    18.06999969  15.70000076  53.27999878
C    17.77000046  15.29999924  51.93999863
C    18.79999924  15.17000008  51.03000259
C    20.15000153  15.31000042  51.42000198
C    21.24000168  15.11000061  50.52999878
C    22.53000069  15.46000004  50.86000061
C    22.79000092  15.85999966  52.19999695
C    21.77000046  16.07999992  53.09999847
C    20.43000031  15.77999973  52.76000214
C    16.32999992  15.18000031  51.79000092
C    15.59999943  15.57000065  52.94000244
C    14.22000027  15.65000057  53.08000183
C    24.14999962  16.44000053  52.50000000
H    24.68881989  15.77356434  53.17352295
H    19.55000114  16.32999992  54.68000031
H    18.51000023  14.68000031  50.10000229
H    20.93000031  15.01999950  49.48999786
H    23.28000069  15.59000015  50.07999802
H    21.96000099  16.46999931  54.09000015
H    13.81000042  16.04999924  54.00000000
H    24.73999977  16.55999947  51.58000183
H    24.14999962  17.46000099  52.91999817
S    13.02999973  14.35999966  49.51000214
C    10.36999893  14.14000034  50.24000168
C    11.61999893  14.63000107  50.56000137
C    11.97999954  15.17000008  51.83000183
C    10.97000027  15.39000034  52.75000000
C     9.64999962  15.01999950  52.41000366
C     8.56999969  15.21999931  53.31999969
C     7.23999977  15.01000023  53.04999924
C     6.93000031  14.42000008  51.79000092
C     7.95000029  14.04000092  50.94999695
C     9.31999969  14.40000057  51.14999771
C    13.42000008  15.25000000  52.00000000
C    14.11000061  14.93999958  50.79999924
C    15.48999977  14.91000080  50.70000076
C     5.50000000  14.27999973  51.33999634
H     5.27924871  14.55059814  50.30745316
H    10.18000031  13.53000069  49.36000061
H    11.18999958  15.75000000  53.75000000
H     8.88000011  15.72999954  54.22999954
H     6.48999977  15.15999985  53.81999969
H     7.73000002  13.45999908  50.05000305
H    15.90000057  14.68000031  49.72000122
H     4.80999994  14.86999989  51.95999908
H     5.05999994  13.27000046  51.33999634
