96

S    16.90999985  12.00000000  58.34000015
C    19.56999969  12.27000046  57.50000000
C    18.29000092  11.84999943  57.22999954
C    17.89999962  11.32999992  55.94999695
C    18.92000008  11.14999962  55.04000092
C    20.23999977  11.61000061  55.27999878
C    21.25999832  11.51000023  54.27999878
C    22.59000015  11.59000015  54.61000061
C    22.98999977  11.89000034  55.93999863
C    22.01999855  12.13000107  56.88999939
C    20.62999916  12.03999996  56.59000015
C    16.45000076  11.25000000  55.86000061
C    15.77000046  11.47999954  57.09000015
C    14.39000034  11.61999893  57.21000290
C    24.40999985  12.28000069  56.30000305
H    24.84490967  11.60981178  57.04148865
H    19.78999901  12.71999931  58.47000122
H    18.72999954  10.67000008  54.09000015
H    21.01000023  11.21000099  53.27000046
H    23.25000000  11.32999992  53.79000092
H    22.21999931  12.48000050  57.88999939
H    13.97999954  11.85999966  58.18999863
H    24.97999954  12.28000069  55.35999680
H    24.54000092  13.30999947  56.65999985
S    13.22000027  10.77000046  53.48999786
C    10.51000023  10.75000000  54.13999939
C    11.79999924  11.10000038  54.48999786
C    12.20000076  11.54999924  55.79000092
C    11.18999958  11.65999985  56.72999954
C     9.86999989  11.26000023  56.43000031
C     8.82999992  11.26999950  57.41000366
C     7.55000019  10.90999985  57.08000183
C     7.21000004  10.44999981  55.77999878
C     8.14000034  10.54999924  54.77000427
C     9.47000027  10.93999958  55.08999634
C    13.63999939  11.54999924  56.04000092
C    14.29999924  11.23000050  54.81999969
C    15.67999935  11.13000011  54.69999695
C     5.78999996  10.06000042  55.45000076
H     5.27691650  10.80112076  54.83715057
H    10.26999950  10.36999893  53.15000153
H    11.39999962  11.84999943  57.77999878
H     9.19999981  11.64999962  58.36999893
H     6.69000053  11.13999939  57.70000076
H     7.79999971  10.34999943  53.75999832
H    16.04999924  10.88000107  53.70999908
H     5.31000042   9.96000004  56.44000244
H     5.88000011   9.10000038  54.92000198
S    13.73000050   8.63000011  50.65000153
C    11.00999928   8.34999943  51.22000122
C    12.30999947   7.99000025  51.50000000
C    12.74000072   7.28999996  52.68000031
C    11.76000023   7.04999971  53.61999893
C    10.39000034   7.23999977  53.29999924
C     9.35999966   6.65999985  54.08000183
C     8.01999950   6.81999969  53.77999878
C     7.65999985   7.36999989  52.52999878
C     8.60999966   7.94000053  51.70999908
C     9.98999977   7.82000017  52.04999924
C    14.14000034   7.46000004  53.01000214
C    14.80999947   8.17000008  51.97999954
C    16.15999985   8.51000023  52.04000092
C     6.19000006   7.59999990  52.22000122
H     5.78998566   7.19284248  51.29139328
H    10.75000000   9.07999992  50.45999908
H    12.15000057   6.54999971  54.51000214
H     9.65999985   6.05000019  54.93000031
H     7.26999998   6.43000031  54.45999908
H     8.32999992   8.32999992  50.73999786
H    16.61999893   8.86999989  51.12999725
H     5.58000040   7.23999977  53.06000137
H     6.07999992   8.69000053  52.23999786
S    17.43000031   6.75000000  55.38000107
C    20.13000107   7.30000019  54.86999893
C    18.81000137   7.40000010  54.47000122
C    18.34000015   8.14000034  53.34000015
C    19.29999924   8.56000042  52.43000031
C    20.68000031   8.53999996  52.75000000
C    21.64999962   9.01000023  51.81999969
C    22.98999977   8.89999962  52.11999893
C    23.35000038   8.19000053  53.29000092
C    22.44999886   7.68000031  54.20000076
C    21.05999947   7.86999989  53.95999908
C    16.90000153   8.10999966  53.15999985
C    16.26000023   7.40000010  54.20999908
C    14.89999962   7.13999987  54.15000153
C    24.76000023   7.67000008  53.34999847
H    25.27249336   8.17537403  54.16856384
H    20.36000061   6.67000008  55.72000122
H    19.10000038   9.07999992  51.50000000
H    21.30000114   9.46000004  50.90000153
H    23.74000168   9.19999981  51.38999939
H    22.60999870   6.80000019  54.80999756
H    14.40999985   6.53999996  54.91000366
H    25.26000023   7.92000008  52.41000366
H    24.82999992   6.58999968  53.53000259
