96

S    16.93000031  12.35999966  58.69999695
C    19.65999985  12.23999977  58.13999939
C    18.37000084  11.97999954  57.72999573
C    18.02999878  11.61999893  56.38999939
C    19.09000015  11.40999985  55.52999878
C    20.43000031  11.72999954  55.89000320
C    21.40999985  11.64000034  54.86999893
C    22.70000076  11.87000084  55.28999710
C    23.05000114  12.44999981  56.53999710
C    22.04000092  12.67000008  57.44999695
C    20.73999786  12.15000057  57.22999954
C    16.59000015  11.56000042  56.20999908
C    15.85000038  11.97999954  57.34000397
C    14.46000004  12.02000046  57.38999939
C    24.51000023  12.63000011  56.88999939
H    24.87209129  12.00521755  57.70647812
H    19.85000038  12.56000042  59.16999817
H    18.84000015  11.31999969  54.47999954
H    21.14999962  11.23000050  53.89999771
H    23.44000053  11.64999962  54.52000046
H    22.26000023  13.00000000  58.46000290
H    14.01000023  12.28999996  58.34999847
H    25.19000053  12.35999966  56.07999802
H    24.68000031  13.71000099  57.02000046
S    13.48999977  10.72999954  53.75000000
C    10.77000046  10.70000076  54.36000061
C    12.05999947  10.97000027  54.77000427
C    12.32999992  11.46000004  56.07999802
C    11.31000042  11.68000031  56.97999954
C     9.98000050  11.35000038  56.60999680
C     8.93999958  11.56000042  57.56000137
C     7.68000031  11.05000019  57.35000229
C     7.42999983  10.44999981  56.09000397
C     8.36999989  10.43000031  55.07999802
C     9.71000004  10.85000038  55.28999710
C    13.76999950  11.59000015  56.25000000
C    14.52999973  11.18999958  55.12000275
C    15.92000008  11.10000038  55.06999969
C     6.03999996   9.92999935  55.83000183
H     5.43702841  10.58262825  55.19865417
H    10.52000046  10.15999985  53.44999695
H    11.47999954  12.05000019  57.98999786
H     9.30000019  12.01000023  58.48999786
H     6.93000031  11.03000069  58.13000107
H     8.19999981   9.96999931  54.10999680
H    16.40999985  10.85999966  54.13000107
H     5.46000004   9.82999992  56.75000000
H     6.11999989   8.90999985  55.43000031
S    16.97999954  12.79000092  52.42000198
C    19.72999954  12.56000042  51.81999969
C    18.42000008  12.32999992  51.47999573
C    18.00000000  11.84999943  50.20000076
C    18.98999977  11.65999985  49.25000000
C    20.34000015  11.98999977  49.50000000
C    21.35000038  11.77999973  48.52000427
C    22.65999985  12.07999992  48.80000305
C    23.05999947  12.53999901  50.07999802
C    22.10000038  12.65999985  51.06999969
C    20.72999954  12.34000015  50.84999847
C    16.54999924  11.85999966  50.08999634
C    15.77999973  12.25999928  51.22000122
C    14.40000057  12.38000011  51.25000000
C    24.51999855  12.65999985  50.47000122
H    24.81212807  12.31087017  51.46038818
H    19.96999931  12.96000004  52.80000305
H    18.72999954  11.39000034  48.22999954
H    20.97999954  11.44999981  47.56000137
H    23.42000008  12.10000038  48.02000046
H    22.26000023  13.09999943  52.04999924
H    13.86999989  12.69000053  52.14000320
H    25.19000053  12.23000050  49.71000290
H    24.64999962  13.75000000  50.47999954
S    13.35000038  11.25000000  47.56000137
C    10.62999916  11.31999969  48.27999878
C    11.94000053  11.61999893  48.56999969
C    12.28000069  12.11999989  49.86999893
C    11.33999920  12.32999992  50.86999893
C    10.00000000  11.97999954  50.58000183
C     9.01000023  11.98999977  51.59999847
C     7.69000006  11.69000053  51.36000061
C     7.36000013  11.18000031  50.06999969
C     8.31999969  10.98999977  49.10999680
C     9.63999939  11.50000000  49.27000046
C    13.71999931  12.09000015  50.06000137
C    14.42000008  11.56999969  48.94000244
C    15.80999947  11.46000004  48.96999741
C     5.92000008  10.80999947  49.79000092
H     5.67201614  11.45475769  48.94685745
H    10.31000042  11.00999928  47.28000259
H    11.50000000  12.53000069  51.91999817
H     9.28999996  12.28999996  52.61000061
H     7.00999975  11.56000042  52.18999863
H     8.07999992  10.52999973  48.15000153
H    16.34000015  11.18999958  48.06999969
H     5.36999989  11.02000046  50.70999908
H     5.82000017   9.76000023  49.48999786
