96

S    16.80999947  12.05000019  58.62999725
C    19.52000046  12.51999950  57.88999939
C    18.22000122  12.18999958  57.56000137
C    17.86000061  11.84999943  56.22000122
C    18.86999893  11.77999973  55.27000046
C    20.22999954  12.02000046  55.61000061
C    21.34000015  11.84000015  54.73999786
C    22.62000084  12.15999985  55.13999939
C    22.86000061  12.76999950  56.39999771
C    21.87999916  12.81000042  57.36000061
C    20.56999969  12.42000008  56.95000076
C    16.42000008  11.76000023  56.07999802
C    15.67999935  12.02000046  57.25999832
C    14.30999947  12.25999928  57.27000427
C    24.27999878  13.17000008  56.73999786
H    24.67919159  12.61398125  57.58828354
H    19.70000076  12.86999893  58.89999771
H    18.68999863  11.71000004  54.20000076
H    21.21999931  11.31000042  53.80000305
H    23.43000031  12.10999966  54.41999817
H    21.90000153  13.15999985  58.39000320
H    13.71000099  12.63000011  58.09999847
H    24.96000099  13.14000034  55.89000320
H    24.33000183  14.18000031  57.18000031
S    13.22999954  11.23999977  53.57999802
C    10.48999977  11.13999939  54.22999954
C    11.77999973  11.44999981  54.58000183
C    12.13999939  11.84999943  55.90999985
C    11.18999958  11.84999943  56.90999985
C     9.85999966  11.54999924  56.52000046
C     8.80999947  11.54999924  57.48000336
C     7.50999975  11.23000050  57.16999817
C     7.13999987  10.85999966  55.84999847
C     8.10000038  10.85999966  54.86999893
C     9.44999981  11.18999958  55.19000244
C    13.57999992  11.97999954  56.11000061
C    14.30999947  11.57999992  54.94999695
C    15.69000053  11.44999981  54.93000031
C     5.69999981  10.55999947  55.47999954
H     5.38080597  10.97140503  54.52241898
H    10.34999943  10.62999916  53.27000046
H    11.52999973  12.05999947  57.91999817
H     9.09000015  11.80999947  58.50000000
H     6.78999996  11.18999958  57.97999954
H     7.85000038  10.47999954  53.88999939
H    16.18999863  11.14999962  54.01000214
H     5.21000004  11.05999947  56.31999969
H     5.51999998   9.48000050  55.50000000
S    17.11000061  13.02000046  52.58999634
C    19.86999893  13.07000065  51.98999786
C    18.59000015  12.72999954  51.63999939
C    18.30000114  12.30999947  50.30000305
C    19.36000061  12.18000031  49.41999817
C    20.72000122  12.35999966  49.79999924
C    21.77000046  12.46000099  48.83999634
C    23.00000000  12.92000008  49.26000214
C    23.31999969  13.38000107  50.56000137
C    22.29000092  13.27999973  51.45999908
C    20.96999931  12.84999943  51.12999725
C    16.87000084  12.13000107  50.10000229
C    16.10999870  12.61000061  51.18999863
C    14.72000027  12.61999989  51.16000366
C    24.64999962  13.94999981  51.00999832
H    25.12828064  13.24328518  51.68815994
H    20.02000046  13.57999992  52.94000244
H    19.15999985  12.03999996  48.36999893
H    21.61999893  12.05000019  47.84999847
H    23.82999802  12.93000031  48.54999924
H    22.55000114  13.68999958  52.43000031
H    14.18000031  12.94999981  52.04000092
H    25.26000023  14.11999893  50.12000275
H    24.34000015  14.88999939  51.49000168
S    13.73000050  11.57999992  47.49000168
C    11.00000000  11.76000023  48.04000092
C    12.28999996  11.97000027  48.44999695
C    12.58999920  12.43000031  49.77000427
C    11.51999950  12.63000011  50.63000107
C    10.19999981  12.34000015  50.24000168
C     9.11000061  12.27000046  51.16000366
C     7.86999989  11.78999996  50.81999969
C     7.57000017  11.51999950  49.45999908
C     8.53999996  11.71000004  48.50000000
C     9.88000011  11.97000027  48.88999939
C    14.02999973  12.35000038  49.97000122
C    14.80999947  11.94000053  48.86000061
C    16.18999863  11.84000015  48.90999603
C     6.15999985  11.11999989  49.12000275
H     5.74178553  11.72959995  48.31901169
H    10.88000107  11.36000061  47.02999878
H    11.78999996  12.74000072  51.68000031
H     9.42000008  12.46999931  52.18999863
H     7.13999987  11.64000034  51.62000275
H     8.34000015  11.26999950  47.51999664
H    16.73999977  11.72000027  47.97999954
H     5.59999990  11.36999989  50.02999878
H     6.03999996  10.06999969  48.81999969
