96

S    16.15999985  12.43999958  58.68000031
C    18.86999893  12.57999992  58.02000046
C    17.60000038  12.18999958  57.67000198
C    17.22999954  11.67000008  56.38000107
C    18.27999878  11.52999973  55.50000000
C    19.61000061  11.90999985  55.77999878
C    20.62999916  11.77999973  54.79000092
C    21.94000053  12.05000019  55.13999939
C    22.23999977  12.56000042  56.42000198
C    21.25000000  12.94000053  57.29999924
C    19.92000008  12.50000000  57.05999756
C    15.78999996  11.56000042  56.23000336
C    15.06999969  12.05999947  57.34000397
C    13.68000031  12.11999989  57.39999771
C    23.69999886  12.81000042  56.75000000
H    24.14729691  12.21360493  57.54519653
H    19.09000015  12.96000004  59.01000214
H    18.01000023  11.18999958  54.50000000
H    20.29000092  11.39000034  53.83999634
H    22.67000008  11.97999954  54.34000015
H    21.63000107  13.45000076  58.18000031
H    13.17000008  12.20999908  58.34999847
H    24.33000183  12.64000034  55.86999893
H    23.68999863  13.86000061  57.04000092
S    12.65999985  10.69000053  53.80000305
C     9.98000050  10.46000004  54.54999924
C    11.26000023  10.84000015  54.88999939
C    11.54999924  11.54999924  56.10000229
C    10.47999954  11.79999924  56.93999863
C     9.17000008  11.36000061  56.65000153
C     8.07999992  11.63000011  57.52999878
C     6.81999969  11.18999958  57.19999695
C     6.51000023  10.59000015  55.94999695
C     7.53000021  10.42000008  55.04000092
C     8.86999989  10.71000004  55.40000153
C    12.98999977  11.69999981  56.25000000
C    13.71000099  11.28000069  55.10000229
C    15.07999992  11.10000038  55.11000061
C     5.05999994  10.29999924  55.61000061
H     4.88215351  10.76951408  54.64251709
H    10.00000000   9.84000015  53.66000366
H    10.62000084  12.36999989  57.84999847
H     8.32999992  11.85999966  58.55999756
H     6.00000000  11.39999962  57.88000107
H     7.37999964   9.86999989  54.12000275
H    15.65999985  10.73999977  54.27000046
H     4.46999979  10.62999916  56.46999741
H     4.84000015   9.23999977  55.45999908
S    13.27000046   8.82999992  50.70000076
C    10.72000027   8.01999950  51.38999939
C    12.06999969   7.88999987  51.60999680
C    12.56999969   7.31999969  52.81999969
C    11.67000008   6.77999973  53.73000336
C    10.26999950   6.85999966  53.52000427
C     9.32999992   6.43000031  54.50000000
C     7.99000025   6.51999998  54.23999786
C     7.49000025   7.04999971  53.02000046
C     8.38000011   7.57000017  52.11000061
C     9.78999996   7.48000050  52.31999969
C    14.00000000   7.51999950  52.94000244
C    14.47999954   8.34999943  51.90000153
C    15.82999992   8.69000053  51.95000076
C     6.00000000   7.22000027  52.85999680
H     5.65959883   7.20581675  51.82461166
H    10.26999950   8.69000053  50.65999985
H    12.06999969   6.37000036  54.65000153
H     9.67000008   6.07999992  55.47000122
H     7.26999998   6.30999994  55.02999878
H     8.09000015   8.15999985  51.24000168
H    16.23999977   9.17000008  51.06999969
H     5.59000015   6.28999996  53.27000046
H     5.65999985   8.10999966  53.40000153
S    17.19000053   7.23999977  55.43000031
C    19.84000015   7.90999985  54.82999802
C    18.51000023   7.97999954  54.50000000
C    18.09000015   8.52999973  53.25000000
C    19.02000046   9.11999989  52.41000366
C    20.39999962   8.93000031  52.68000031
C    21.40999985   9.26000023  51.72999954
C    22.76000023   9.26000023  51.98999786
C    23.21000099   8.76999950  53.25000000
C    22.23999977   8.34000015  54.13000107
C    20.82999992   8.40999985  53.95000076
C    16.67000008   8.34000015  53.02000046
C    16.07999992   7.59999990  54.09000015
C    14.78999996   7.09999990  54.02000046
C    24.67000008   8.48999977  53.50999832
H    25.06880760   8.85319996  54.45717239
H    20.19000053   7.46000004  55.76000214
H    18.65999985   9.51000023  51.46999741
H    21.04999924   9.56999969  50.76000214
H    23.45999908   9.38000011  51.17000198
H    22.60999870   7.79999971  55.00000000
H    14.37999916   6.63999987  54.91000366
H    25.22000122   9.00000000  52.70999908
H    24.75000000   7.40000010  53.41999817
