96

S    16.69999886  12.39999962  58.23999786
C    19.37999916  12.39999962  57.55000305
C    18.09999847  12.01000023  57.22000122
C    17.79999924  11.56999969  55.89000320
C    18.81999969  11.47999954  54.95999908
C    20.13999939  11.84999943  55.27999878
C    21.27000046  11.64000034  54.43000031
C    22.53999901  12.02000046  54.79999924
C    22.76000023  12.56000042  56.10000229
C    21.73999977  12.72999954  57.00000000
C    20.42000008  12.38000011  56.59000015
C    16.35000038  11.44999981  55.79999924
C    15.62000084  11.95000076  56.90999985
C    14.25000000  12.17000008  56.95000076
C    24.14999962  13.07000065  56.39999771
H    24.51929855  12.45923615  57.22381973
H    19.57999992  12.75000000  58.55999756
H    18.60999870  11.17000008  53.94000244
H    21.11000061  11.26000023  53.41999817
H    23.38000107  12.01000023  54.12000275
H    21.80000114  13.26000023  57.95000076
H    13.67000008  12.46999931  57.81000137
H    24.80999947  12.97999954  55.52999878
H    24.15999985  14.07999992  56.84000015
S    13.15000057  10.85999966  53.34999847
C    10.47000027  10.69000053  54.13999939
C    11.76000023  11.09000015  54.43000031
C    12.07999992  11.73999977  55.65999985
C    11.10000038  11.92000008  56.62000275
C     9.76000023  11.56999969  56.33999634
C     8.73999977  11.63000011  57.32999802
C     7.44000006  11.26000023  57.06999969
C     7.11000013  10.77000046  55.77999878
C     8.09000015  10.60999966  54.81999969
C     9.44000053  10.97000027  55.06999969
C    13.53000069  11.77999973  55.81999969
C    14.23999977  11.38000011  54.65000153
C    15.59999943  11.10999966  54.66999817
C     5.65000010  10.42000008  55.59999847
H     5.13809633  10.96034336  54.80370331
H    10.22999954  10.26000023  53.16999817
H    11.46999931  12.18999958  57.61000061
H     9.06999969  11.78999996  58.34999847
H     6.71000004  11.39000034  57.85999680
H     7.76000023  10.31999969  53.82999802
H    16.04999924  10.65999985  53.77999878
H     5.19000006  10.60999966  56.56999969
H     5.65999985   9.36999989  55.31000137
S    13.71999931   8.36000061  50.56999969
C    10.95999908   8.14999962  51.18000031
C    12.28000069   7.99000025  51.53999710
C    12.64999962   7.36999989  52.77999878
C    11.64999962   6.90999985  53.61999893
C    10.27999973   7.04999971  53.31999969
C     9.19000053   6.67000008  54.15999985
C     7.86999989   6.91999960  53.85000229
C     7.57999992   7.67000008  52.68000031
C     8.59000015   7.99000025  51.79999924
C     9.94999981   7.73999977  52.09999847
C    14.07999992   7.46999979  53.06999969
C    14.77000046   8.01999950  51.95999908
C    16.10000038   8.42000008  52.02000046
C     6.17000008   8.03999996  52.29000092
H     5.70740318   7.49911690  51.46443939
H    10.71000004   8.76000023  50.31999969
H    11.89000034   6.57000017  54.61999893
H     9.32999992   6.19999981  55.12000275
H     7.03999996   6.48999977  54.38999939
H     8.34000015   8.50000000  50.86000061
H    16.57999992   9.01000023  51.25000000
H     5.63000011   8.05000019  53.23999786
H     6.07999992   9.13000011  52.18000031
S    17.28999901   7.07999992  55.52000046
C    20.00000000   7.51999950  54.89999771
C    18.68000031   7.62000036  54.54999924
C    18.30000114   8.25000000  53.31999969
C    19.26000023   8.75000000  52.45999908
C    20.61000061   8.75000000  52.87000275
C    21.64999962   9.21000004  52.00000000
C    22.96999931   8.89000034  52.22000122
C    23.35000038   8.22000027  53.40999985
C    22.39999962   7.92999983  54.36999893
C    21.02000046   8.10000038  54.09000015
C    16.86000061   8.09000015  53.15000153
C    16.14999962   7.46999979  54.20999908
C    14.80000019   7.14999962  54.22000122
C    24.80999947   7.88999987  53.62999725
H    25.13723564   8.28837490  54.59037018
H    20.23999977   6.97000027  55.79999924
H    18.93000031   9.09000015  51.47999573
H    21.30000114   9.72999954  51.11000061
H    23.68999863   9.17000008  51.45999908
H    22.63000107   7.17999983  55.12000275
H    14.34000015   6.75000000  55.12000275
H    25.43999863   8.31999969  52.84999847
H    24.86999893   6.80000019  53.74000168
