96

S    16.57999992  12.02000046  58.55999756
C    19.29000092  12.09000015  57.77000046
C    17.97000122  11.89000034  57.45999908
C    17.53000069  11.61000061  56.11999893
C    18.50000000  11.42000008  55.14999771
C    19.88000107  11.46000004  55.48999786
C    20.89999962  11.10000038  54.55999756
C    22.21999931  11.28999901  54.87999725
C    22.65999985  11.77000046  56.13999939
C    21.68999863  11.97000027  57.09999847
C    20.29999924  11.77999973  56.81999969
C    16.09000015  11.43000031  56.09000397
C    15.39000034  11.69000053  57.29000092
C    14.00000000  11.75000000  57.39999771
C    24.05999947  12.25999928  56.38000107
H    24.73770905  11.62509155  56.95070267
H    19.54000092  12.60000038  58.68999863
H    18.19000053  11.00000000  54.20000076
H    20.59000015  10.80999947  53.55999756
H    22.98999977  11.21000099  54.12000275
H    21.87999916  12.38000011  58.08000183
H    13.50000000  12.13000107  58.27999878
H    24.53000069  12.43000031  55.40000153
H    24.01000023  13.27000046  56.79999924
S    12.88000011  10.85000038  53.67000198
C    10.21000004  10.59000015  54.40999985
C    11.50000000  10.85999966  54.79000092
C    11.82000065  11.09000015  56.17000198
C    10.80000019  11.18000031  57.09999847
C     9.44000053  11.00999928  56.75000000
C     8.36999989  11.23000050  57.65999603
C     7.11000013  10.76000023  57.36999893
C     6.85999966  10.31999969  56.04000092
C     7.79999971  10.47000027  55.05000305
C     9.17000008  10.67000008  55.38000107
C    13.25000000  11.32999992  56.29000092
C    13.93000031  11.09000015  55.07999802
C    15.31999969  11.07999992  54.97000122
C     5.49000025   9.80000019  55.65999985
H     4.92137527  10.46813393  55.01319122
H    10.00000000  10.25000000  53.40000153
H    11.13999939  11.51999950  58.06999969
H     8.55000019  11.64000034  58.66000366
H     6.32000017  10.82999992  58.09999847
H     7.63000011  10.25000000  54.00000000
H    15.84000015  10.92000008  54.02999878
H     4.94999981   9.56999969  56.58000183
H     5.58000040   8.82000065  55.15999603
S    17.20000076  12.39999962  52.44999695
C    19.88000107  12.67000008  51.65999985
C    18.56999969  12.42000008  51.31999969
C    18.15000153  11.84000015  50.07999802
C    19.13999939  11.59999943  49.15000153
C    20.50000000  11.92999935  49.38000107
C    21.53000069  11.69000053  48.41999817
C    22.85000038  11.92999935  48.75999832
C    23.21000099  12.38999939  50.05000305
C    22.22999954  12.71999931  50.96000290
C    20.86000061  12.48999977  50.65000153
C    16.70999908  11.59999943  49.99000168
C    16.03999901  12.03999996  51.14999771
C    14.65000057  12.09000015  51.23000336
C    24.59000015  12.86999893  50.41999817
H    25.06495285  12.32415962  51.23521423
H    20.12000084  12.97000027  52.67000198
H    18.92000008  11.13999939  48.18999863
H    21.14999962  11.51000023  47.42000198
H    23.64000130  11.84999943  48.01000214
H    22.40999985  13.17000008  51.93000031
H    14.22000027  12.31999969  52.19999695
H    25.34000015  12.77999973  49.61999893
H    24.51000023  13.89999962  50.77000046
S    13.48999977  11.05000019  47.60000229
C    10.76000023  10.97000027  48.33000183
C    12.07999992  11.19999981  48.67000198
C    12.41000080  11.75000000  49.93999863
C    11.38000011  11.98999977  50.83000183
C    10.03999901  11.61000061  50.56000137
C     9.01000023  11.72000027  51.53999710
C     7.72000027  11.39000034  51.22000122
C     7.36000013  10.92000008  49.93000031
C     8.34000015  10.80999947  48.96999741
C     9.68999958  11.17000008  49.23999786
C    13.86000061  11.82999992  50.10000229
C    14.57999992  11.40999985  48.95000076
C    15.95000076  11.18999958  48.88999939
C     5.96000004  10.39000034  49.68999863
H     5.45518494  10.99435616  48.93632889
H    10.42000008  10.62000084  47.36000061
H    11.56000042  12.28999996  51.86000061
H     9.28999996  12.09000015  52.51999664
H     6.96000004  11.42000008  51.98999786
H     8.15999985  10.48999977  47.95000076
H    16.54000092  11.03999996  47.98999786
H     5.42999983  10.48999977  50.63999939
H     6.07999992   9.32999992  49.43000031
