96

S    16.65999985  12.09000015  58.37999725
C    19.34999847  12.55000019  57.77000046
C    18.12000084  12.07999992  57.36999893
C    17.80999947  11.72000027  56.02000427
C    18.89000130  11.64000034  55.14999771
C    20.22000122  11.94000053  55.52999878
C    21.30000114  11.61000061  54.66999817
C    22.56999969  12.02000046  55.02999878
C    22.77000046  12.61999989  56.29000092
C    21.77000046  12.79000092  57.22000122
C    20.43000031  12.46999931  56.84999847
C    16.38000107  11.64000034  55.77000046
C    15.62999916  11.80999947  56.95999908
C    14.25000000  11.96000004  57.04000092
C    24.20000076  13.02000046  56.59000015
H    24.66767693  12.37517452  57.33403015
H    19.47999954  12.86999893  58.80000305
H    18.78000069  11.42000008  54.09000015
H    21.05999947  11.16000080  53.70999908
H    23.38000107  11.77000046  54.36000061
H    21.90999985  13.07999992  58.25000000
H    13.73999977  12.06999969  57.98999786
H    24.77999878  12.98999977  55.65999985
H    24.33000183  14.01999950  57.02000046
S    13.15999985  10.85000038  53.40999985
C    10.48999977  10.67000008  54.06000137
C    11.75000000  11.06999969  54.45999908
C    12.05999947  11.56999969  55.76000214
C    11.02000046  11.77000046  56.65000153
C     9.71000004  11.38000011  56.27999878
C     8.67999935  11.40999985  57.27000427
C     7.39000034  11.03000069  56.97999954
C     7.07999992  10.71000004  55.63000107
C     8.07999992  10.47999954  54.71000290
C     9.42000008  10.88000107  54.97000122
C    13.50000000  11.72999954  55.87999725
C    14.25000000  11.31999969  54.73999786
C    15.62999916  11.36999989  54.61999893
C     5.63000011  10.39999962  55.34000015
H     5.11767101  10.96925354  54.56439209
H    10.26999950  10.10000038  53.15999985
H    11.23999977  12.11999989  57.65999603
H     8.90999985  11.65999985  58.29999924
H     6.61000013  10.86999989  57.71999741
H     7.94000053  10.01000023  53.75000000
H    16.18000031  11.21000099  53.69999695
H     5.07999992  10.52000046  56.27999878
H     5.53999996   9.31999969  55.18000031
S    13.71999931   8.67000008  50.59999847
C    11.07999992   8.19000053  51.24000168
C    12.39999962   8.03999996  51.60999680
C    12.79999924   7.51999950  52.88000107
C    11.84000015   7.02000046  53.74000168
C    10.47999954   7.05999947  53.37999725
C     9.44000053   6.54999971  54.22000122
C     8.14000034   6.76000023  53.82999802
C     7.73000002   7.37999964  52.62000275
C     8.73999977   7.68000031  51.75000000
C    10.11999989   7.62000036  52.11000061
C    14.23999977   7.73999977  53.04000092
C    14.85999966   8.34000015  51.91999817
C    16.22999954   8.60000038  51.88000107
C     6.28000021   7.65999985  52.28000259
H     5.97277308   6.92408419  51.53694153
H    11.03000069   8.52000046  50.20000076
H    12.15999985   6.54999971  54.66999817
H     9.61999989   5.84000015  55.02999878
H     7.42999983   6.44999981  54.58000183
H     8.56000042   7.99000025  50.72000122
H    16.77999878   8.93999958  51.00000000
H     5.71000004   7.42000008  53.18999863
H     6.21999979   8.69999981  51.93000031
S    17.51000023   7.14999962  55.37000275
C    20.20000076   7.69000006  54.65999985
C    18.86000061   7.76999998  54.40000153
C    18.38999939   8.28999996  53.15000153
C    19.30999947   8.73000050  52.22000122
C    20.69999886   8.65999985  52.48000336
C    21.64999962   9.21000004  51.56999969
C    22.98000145   9.25000000  51.90000153
C    23.45999908   8.76999950  53.15000153
C    22.56999969   8.14000034  53.99000168
C    21.17000198   8.13000011  53.73000336
C    16.94000053   8.21000004  53.01000214
C    16.32999992   7.55999994  54.10999680
C    14.96000099   7.28999996  54.15000153
C    24.92000198   8.94999981  53.50000000
H    25.33413315   8.15029526  54.11405945
H    20.48999977   7.18999958  55.59000015
H    18.86999893   9.11000061  51.30000305
H    21.18999863   9.81000042  50.79000092
H    23.65999985   9.77999973  51.23000336
H    22.93000031   7.75000000  54.93000031
H    14.56999969   6.77999973  55.01999664
H    25.03999901   9.89000034  54.05000305
H    25.59000015   9.00000000  52.63000107
