96

S    16.73999977  11.95000076  58.74000168
C    19.45000076  12.02000046  58.06999969
C    18.15999985  11.67000008  57.71999741
C    17.81999969  11.38000011  56.36000061
C    18.86000061  11.13000011  55.47999954
C    20.20999908  11.39999962  55.81999969
C    21.21000099  11.36999989  54.81999969
C    22.49000168  11.79999924  55.08999634
C    22.80999947  12.32999992  56.37000275
C    21.83000183  12.36999989  57.34000397
C    20.46999931  12.02999973  57.09000015
C    16.38000107  11.23999977  56.24000168
C    15.64000034  11.59999943  57.38999939
C    14.27999973  11.90000057  57.32999802
C    24.23000145  12.74000072  56.69000244
H    24.67027092  11.95177078  57.30070496
H    19.57999992  12.35999966  59.09000015
H    18.57999992  11.03999996  54.43999863
H    20.88000107  11.19999981  53.80000305
H    23.22999954  11.76000023  54.29999924
H    22.06000137  12.69999981  58.34999847
H    13.81999969  12.30999947  58.22000122
H    24.76000023  12.89000034  55.73999786
H    24.23000145  13.73000050  57.14000320
S    13.21000004  10.13000011  53.90999603
C    10.52000046  10.27999973  54.45999908
C    11.77999973  10.72000027  54.78000259
C    12.15999985  11.30000019  56.04000092
C    11.14999962  11.46000004  56.97999954
C     9.84000015  11.00999928  56.72000122
C     8.76999950  11.09000015  57.65999603
C     7.50000000  10.62000084  57.41000366
C     7.21000004   9.96999931  56.18000031
C     8.22000027   9.86999989  55.25000000
C     9.52000046  10.40999985  55.45999908
C    13.60000038  11.39999962  56.20999908
C    14.30999947  10.84000015  55.11000061
C    15.69000053  10.81999969  55.10000229
C     5.79999971   9.67000008  55.73999786
H     5.44348526  10.31172657  54.93427658
H    10.39999962   9.68999958  53.54999924
H    11.54999924  11.79999924  57.93000031
H     8.82999992  11.67000008  58.59000397
H     6.75000000  10.88999939  58.13999939
H     7.90999985   9.53999996  54.26000214
H    16.15999985  10.47000027  54.18000031
H     5.12000036   9.70000076  56.59999847
H     5.91000032   8.61999989  55.43000031
S    13.56999969   8.14999962  50.70000076
C    10.93999958   7.90999985  51.49000168
C    12.27000046   7.76000023  51.83000183
C    12.74000072   7.14999962  53.04000092
C    11.78999996   6.69000053  53.94000244
C    10.40999985   6.84999990  53.66000366
C     9.39000034   6.30000019  54.47999954
C     8.06999969   6.30000019  54.09000015
C     7.64999962   6.97000027  52.90999985
C     8.60000038   7.46000004  52.04999924
C     9.98000050   7.44999981  52.42000198
C    14.19000053   7.20000029  53.11000061
C    14.77000046   7.77999973  51.95000076
C    16.10000038   8.17000008  51.88000107
C     6.17999983   7.27999973  52.69000244
H     5.67565632   6.68331194  51.92993546
H    10.57999992   8.25000000  50.52000046
H    12.10999966   6.03999996  54.75000000
H     9.72000027   5.88999987  55.43000031
H     7.30000019   5.84999990  54.71000290
H     8.34999943   7.96999979  51.12999725
H    16.44000053   8.76999950  51.04000092
H     5.64000034   7.36000013  53.62999725
H     6.35999966   8.27999973  52.25999832
S    17.64000130   6.51999998  55.15999603
C    20.22000122   7.39000034  54.62999725
C    18.90999985   7.35000038  54.22999954
C    18.38000107   8.02999973  53.09000015
C    19.29000092   8.73000050  52.30999756
C    20.68000031   8.61999989  52.54000092
C    21.61000061   9.19000053  51.62000275
C    22.93999863   9.21000004  51.93999863
C    23.42000008   8.42000008  53.02000046
C    22.55000114   7.90999985  53.96999741
C    21.14999962   8.01999950  53.76999664
C    16.95999908   7.79999971  52.91999817
C    16.39999962   7.09000015  54.02000046
C    15.06000042   6.74000025  54.09999847
C    24.90999985   8.36000061  53.25000000
H    25.15301704   8.25993443  54.30784225
H    20.55000114   6.93000031  55.56000137
H    19.03000069   9.15999985  51.35000229
H    21.25000000   9.65999985  50.70999908
H    23.59999847   9.64999962  51.19999695
H    22.89999962   7.31999969  54.80999756
H    14.57999992   6.30000019  54.97000122
H    25.34000015   9.27999973  52.81999969
H    25.29000092   7.55000019  52.62000275
