96

S    17.06999969  12.07999992  58.54000092
C    19.72999954  12.35999966  57.75000000
C    18.44000053  12.00000000  57.42000198
C    18.01000023  11.54999924  56.12999725
C    19.04000092  11.38000011  55.22999573
C    20.38000107  11.73999977  55.47999954
C    21.45000076  11.33999920  54.62999725
C    22.77000046  11.59000015  54.94999695
C    23.13999939  12.20000076  56.17000198
C    22.13000107  12.50000000  57.05999756
C    20.76000023  12.25999928  56.77000046
C    16.56999969  11.36999989  56.05999756
C    15.90000057  11.69000053  57.27000427
C    14.52000046  11.79999924  57.34000397
C    24.54999924  12.67000008  56.45999908
H    25.02108192  12.16322994  57.30223846
H    19.93000031  12.56999969  58.79000092
H    18.88000107  10.84000015  54.29999924
H    21.24000168  10.95000076  53.63999939
H    23.54000092  11.33999920  54.22000122
H    22.27000046  12.92000008  58.04999924
H    13.96000004  11.89000034  58.27000046
H    25.22999954  12.64000034  55.59999847
H    24.51000023  13.76000023  56.58000183
S    13.32999992  10.81999969  53.62999725
C    10.62999916  10.72999954  54.45000076
C    11.95000076  10.97000027  54.73999786
C    12.35000038  11.33999920  56.05999756
C    11.39999962  11.50000000  57.04999924
C    10.01999950  11.31000042  56.76000214
C     8.98999977  11.42000008  57.72999573
C     7.68000031  11.10999966  57.44999695
C     7.27999973  10.67999935  56.16000366
C     8.25000000  10.62000084  55.19000244
C     9.61999989  10.90999985  55.43000031
C    13.78999901  11.56999969  56.17000198
C    14.42999935  11.14999962  54.98000336
C    15.80999947  10.98000050  54.94999695
C     5.88000011  10.17000008  55.90000153
H     5.37141752  10.72096443  55.10887527
H    10.39999962  10.39999962  53.43999863
H    11.75000000  11.65999985  58.06000137
H     9.26999950  11.80999947  58.70999908
H     6.88000011  11.31000042  58.15000153
H     8.01000023  10.19999981  54.22000122
H    16.29999924  10.67999935  54.02000046
H     5.35000038  10.21000004  56.86000061
H     5.77000046   9.13999939  55.52999878
S    16.86000061  12.79999924  52.37999725
C    19.60000038  12.56999969  51.88999939
C    18.30999947  12.32999992  51.47999573
C    17.98999977  11.95000076  50.13999939
C    19.04000092  11.69000053  49.27999878
C    20.38999939  11.96000004  49.62999725
C    21.38999939  11.82000065  48.62999725
C    22.67999840  12.15000057  48.99000168
C    22.98999977  12.68000031  50.27000046
C    22.00000000  12.88000011  51.19999695
C    20.65000153  12.53000069  50.93000031
C    16.54999924  11.92000008  49.92000198
C    15.80000019  12.44999981  51.00000000
C    14.42000008  12.56999969  51.05999756
C    24.37000084  13.22999954  50.58000183
H    24.91977310  12.48744774  51.15833282
H    19.82999992  12.88000011  52.90000153
H    18.84000015  11.36999989  48.26000214
H    21.04999924  11.85999966  47.60000229
H    23.52999878  12.13999939  48.33000183
H    22.26000023  13.42000008  52.11000061
H    13.83999920  12.89000034  51.93000031
H    24.77999878  13.61999989  49.62999725
H    24.18000031  14.06000042  51.26999664
S    13.35000038  11.18999958  47.51999664
C    10.67000008  10.92000008  48.41999817
C    11.92000008  11.46999931  48.54000092
C    12.28000069  12.06999969  49.79000092
C    11.35000038  12.36999989  50.77000046
C    10.01000023  11.94000053  50.58000183
C     8.98999977  12.10999966  51.55000305
C     7.71000004  11.67000008  51.31000137
C     7.28999996  11.21999931  50.02999878
C     8.28999996  10.95000076  49.12000275
C     9.65999985  11.30000019  49.34000015
C    13.71999931  12.18000031  49.91000366
C    14.46000004  11.79999924  48.76999664
C    15.85000038  11.69999981  48.73000336
C     5.82999992  10.95000076  49.75000000
H     5.57317781  11.23535824  48.72984695
H    10.24000072  10.50000000  47.51999664
H    11.69999981  12.79999924  51.70000076
H     9.26000023  12.50000000  52.52999878
H     6.94999981  11.61000061  52.08000183
H     8.03999996  10.31999969  48.27000046
H    16.32999992  11.31000042  47.84000015
H     5.31000042  11.61999893  50.45000076
H     5.58000040   9.89000034  49.86999893
