96

S    16.84000015  12.10000038  58.60000229
C    19.56999969  12.25999928  57.83000183
C    18.27999878  11.82999992  57.60000229
C    17.88999939  11.25000000  56.35000229
C    18.84000015  11.16000080  55.34999847
C    20.20999908  11.44000053  55.56999969
C    21.22999954  11.31000042  54.58000183
C    22.52000046  11.64999962  54.93000031
C    22.82999992  12.20999908  56.18999863
C    21.87999916  12.42000008  57.15999985
C    20.55000114  12.06999969  56.81999969
C    16.45000076  11.11999989  56.18999863
C    15.72999954  11.64999962  57.29000092
C    14.34999943  11.80999947  57.36000061
C    24.27000046  12.48999977  56.56999969
H    24.73839951  11.87256432  57.33646774
H    19.88000107  12.72999954  58.75999832
H    18.50000000  10.90999985  54.34999847
H    21.05999947  10.85999966  53.61000061
H    23.29000092  11.56999969  54.15999985
H    22.07999992  12.97000027  58.08000183
H    13.75000000  12.15999985  58.18999863
H    24.82999992  12.41000080  55.63000107
H    24.37000084  13.52000046  56.93000031
S    13.22000027  10.50000000  53.75000000
C    10.46000004  10.77000046  54.36000061
C    11.77999973  10.88999939  54.72000122
C    12.20000076  11.38000011  56.00000000
C    11.21000099  11.79999924  56.86000061
C     9.84000015  11.65999985  56.52999878
C     8.80999947  11.95000076  57.45999908
C     7.48000050  11.76000023  57.14000320
C     7.07000017  11.18999958  55.90999985
C     8.05000019  10.90000057  54.99000168
C     9.43000031  11.10999966  55.27000046
C    13.63999939  11.43000031  56.20999908
C    14.32999992  10.95000076  55.06000137
C    15.70000076  10.75000000  55.06999969
C     5.63000011  10.76000023  55.76000214
H     5.16750097  11.12288380  54.84211731
H    10.24000072  10.29000092  53.40000153
H    11.46000004  12.25000000  57.81999969
H     9.02000046  12.30000019  58.47000122
H     6.71999979  11.85999966  57.90000153
H     7.82999992  10.62000084  53.95999908
H    16.28999901  10.59000015  54.16999817
H     5.03000021  10.97000027  56.65000153
H     5.66999960   9.65999985  55.72999954
S    17.02000046  12.35999966  52.47000122
C    19.72999954  12.58999920  51.75000000
C    18.46999931  12.10000038  51.46999741
C    18.09000015  11.56000042  50.20000076
C    19.14999962  11.39999962  49.31999969
C    20.45999908  11.87000084  49.56999969
C    21.50000000  11.78999996  48.59000397
C    22.79000092  12.18000031  48.88000107
C    23.12999916  12.64999962  50.17000198
C    22.15999985  12.77999973  51.12999725
C    20.81999969  12.38000011  50.86000061
C    16.65999985  11.54000092  49.95999908
C    15.95999908  12.05999947  51.06999969
C    14.59000015  12.25999928  51.11999893
C    24.53000069  13.12999916  50.50000000
H    25.06316757  12.48309231  51.19666672
H    19.88000107  13.23999977  52.61000061
H    19.02000046  10.80999947  48.41999817
H    21.19999886  11.46000004  47.60000229
H    23.54000092  12.28999996  48.09999847
H    22.34000015  13.23999977  52.09999847
H    14.02999973  12.48000050  52.02999878
H    25.07999802  13.12000084  49.54999924
H    24.50000000  14.14999962  50.90000153
S    13.38000107  10.82999992  47.61000061
C    10.69000053  11.03000069  48.25000000
C    12.00000000  11.23000050  48.63999939
C    12.42000008  11.71000004  49.92000198
C    11.40999985  12.03999996  50.79999924
C    10.03999901  11.77999973  50.54000092
C     8.93999958  11.96000004  51.43000031
C     7.62000036  11.84000015  51.06999969
C     7.34000015  11.26000023  49.79999924
C     8.36000061  10.88999939  48.95999908
C     9.70000076  11.30000019  49.22999954
C    13.86999989  11.82999992  50.00000000
C    14.52999973  11.23999977  48.88999939
C    15.92000008  11.17000008  48.82999802
C     5.91000032  10.92000008  49.45999908
H     5.60253477  11.39907360  48.53045273
H    10.40999985  10.40999985  47.39999771
H    11.63000011  12.51000023  51.76000214
H     9.22000027  12.30000019  52.43000031
H     6.88000011  12.30999947  51.70999908
H     8.17000008  10.34999943  48.04000092
H    16.40999985  10.88999939  47.88999939
H     5.46000004  11.30000019  50.38999939
H     5.77000046   9.82999992  49.40000153
