96

S    16.77999878  12.00000000  58.63999939
C    19.47000122  12.23000050  57.85999680
C    18.18000031  11.87000084  57.56000137
C    17.81999969  11.47999954  56.22000122
C    18.81000137  11.46999931  55.25000000
C    20.13999939  11.84999943  55.52000046
C    21.19999886  11.78999996  54.56999969
C    22.43000031  12.34000015  54.84000397
C    22.76000023  12.69999981  56.17000198
C    21.81999969  12.57999992  57.18000031
C    20.48000145  12.23999977  56.86999893
C    16.38000107  11.35000038  56.06999969
C    15.70000076  11.67000008  57.27000427
C    14.32000065  11.82000065  57.29999924
C    24.20999908  12.97000027  56.50000000
H    24.62314224  12.37165833  57.31203461
H    19.70999908  12.64999962  58.82999802
H    18.52000046  11.09000015  54.27000046
H    21.05999947  11.32999992  53.59000397
H    23.25000000  12.18999958  54.15000153
H    22.11000061  12.65999985  58.22000122
H    13.78000069  12.01000023  58.22000122
H    24.84999847  12.89000034  55.61999893
H    24.20999908  14.02999973  56.79000092
S    13.26000023  11.00000000  53.55999756
C    10.52000046  10.84000015  54.20999908
C    11.79999924  11.21999931  54.54999924
C    12.18999958  11.59999943  55.86999893
C    11.21000099  11.69999981  56.83000183
C     9.89000034  11.35000038  56.45000076
C     8.82999992  11.44999981  57.38999939
C     7.50999975  11.26999950  57.04000092
C     7.14999962  10.77999973  55.76000214
C     8.10999966  10.69000053  54.78000259
C     9.44999981  11.03000069  55.12000275
C    13.63000011  11.64000034  56.10000229
C    14.34999943  11.28999901  54.92000198
C    15.72999954  11.13999939  54.85000229
C     5.73000002  10.36999893  55.45000076
H     5.26240396  10.90135860  54.62107849
H    10.31000042  10.17000008  53.37999725
H    11.44000053  11.82999992  57.88999939
H     9.04999924  11.84999943  58.37999725
H     6.76000023  11.32999992  57.83000183
H     7.88999987  10.31999969  53.77999878
H    16.21999931  10.84000015  53.93000031
H     5.10999966  10.36000061  56.36000061
H     5.75000000   9.31999969  55.13000107
S    13.59000015   8.90999985  50.72999954
C    10.90000057   8.22000027  51.43000031
C    12.25999928   8.10999966  51.59000015
C    12.71000004   7.50000000  52.81000137
C    11.79999924   6.98999977  53.72000122
C    10.39999962   7.03000021  53.48999786
C     9.40999985   6.51000023  54.38000107
C     8.06999969   6.52999973  54.08000183
C     7.59999990   7.11999989  52.88000107
C     8.52000046   7.75000000  52.06999969
C     9.92000008   7.67000008  52.29999924
C    14.13000011   7.67000008  53.06999969
C    14.73000050   8.38999939  52.00000000
C    16.07999992   8.71000004  51.95000076
C     6.11999989   7.21000004  52.58999634
H     5.73690224   6.40833187  51.95859909
H    10.52000046   8.82999992  50.61000061
H    12.17000008   6.39999962  54.54999924
H     9.71000004   6.05999994  55.31999969
H     7.26999998   6.39999962  54.79999924
H     8.27000046   8.36000061  51.19999695
H    16.50000000   9.27999973  51.12999725
H     5.55000019   7.09000015  53.52000427
H     5.79999971   8.23000050  52.34000397
S    17.50000000   7.07000017  55.27999878
C    20.15000153   7.85000038  54.66999817
C    18.79999924   7.92000008  54.43000031
C    18.36000061   8.42000008  53.15999985
C    19.19999886   9.04999924  52.25999832
C    20.58000183   9.00000000  52.54000092
C    21.51000023   9.52000046  51.59999847
C    22.88000107   9.48999977  51.77999878
C    23.36000061   9.07999992  53.04999924
C    22.47999954   8.53999996  53.95999908
C    21.07999992   8.40999985  53.75000000
C    16.93000031   8.22000027  52.95000076
C    16.32999992   7.49000025  54.00000000
C    14.98000050   7.17000008  54.06000137
C    24.84999847   9.13000011  53.27999878
H    25.17670822   8.71096039  54.23171616
H    20.43000031   7.36000013  55.59999847
H    18.86999893   9.50000000  51.32999802
H    21.07999992   9.81000042  50.63999939
H    23.43000031   9.70000076  50.86999893
H    22.76000023   8.22000027  54.95999908
H    14.50000000   6.48000002  54.75999832
H    25.12000084  10.18000031  53.16999817
H    25.36999893   8.59000015  52.47000122
