96

S    16.87000084  12.11999989  58.68999863
C    19.55000114  12.23999977  57.97000122
C    18.26000023  11.90999985  57.61000061
C    17.89999962  11.33999920  56.35000229
C    18.89999962  11.21000099  55.40000153
C    20.22999954  11.57999992  55.68999863
C    21.35000038  11.36000061  54.82999802
C    22.63000107  11.71000004  55.18000031
C    22.88000107  12.35000038  56.42000198
C    21.86000061  12.56000042  57.32999802
C    20.56999969  12.05000019  57.01000214
C    16.46000099  11.19999981  56.26999664
C    15.73999977  11.57999992  57.43000031
C    14.37000084  11.79999924  57.37999725
C    24.27999878  12.81000042  56.73999786
H    24.85641861  12.06990719  57.29506683
H    19.81999969  12.64000034  58.95000076
H    18.63999939  10.86999989  54.40000153
H    21.19999886  10.98999977  53.81999969
H    23.51000023  11.56000042  54.55999756
H    22.00000000  13.27000046  58.13999939
H    13.76999950  12.23999977  58.18000031
H    24.89000130  12.94000053  55.84000015
H    24.31999969  13.73999977  57.31999969
S    13.34000015  10.52999973  53.66000366
C    10.59999943  10.86999989  54.20000076
C    11.90999985  11.00999928  54.58000183
C    12.28000069  11.38000011  55.91999817
C    11.25000000  11.64999962  56.79999924
C     9.89000034  11.46000004  56.45999908
C     8.80999947  11.63000011  57.37999725
C     7.50999975  11.31000042  57.04999924
C     7.20000029  11.05999947  55.68999863
C     8.17000008  10.95000076  54.72999954
C     9.52999973  11.10000038  55.11000061
C    13.69999981  11.42000008  56.20999908
C    14.37000084  10.95999908  55.04000092
C    15.75000000  10.85000038  55.11000061
C     5.88000011  10.40999985  55.35999680
H     5.33841085  10.89457989  54.54761505
H    10.34000015  10.50000000  53.22000122
H    11.61000061  12.01000023  57.76000214
H     8.97999954  12.05000019  58.36999893
H     6.69000053  11.23999977  57.76000214
H     8.01000023  10.62000084  53.69999695
H    16.34000015  10.47000027  54.27999878
H     5.12000036  10.47000027  56.13999939
H     6.05000019   9.35000038  55.13000107
S    17.05999947  12.35999966  52.45999908
C    19.71999931  12.43000031  51.75000000
C    18.44000053  12.09000015  51.37000275
C    18.12000084  11.79999924  50.00999832
C    19.10000038  11.50000000  49.08000183
C    20.43000031  11.77000046  49.45999908
C    21.55999947  11.44999981  48.64999771
C    22.86999893  11.72000027  48.99000168
C    23.03999901  12.48000050  50.18000031
C    22.03000069  12.76999950  51.06999969
C    20.72000122  12.34000015  50.75000000
C    16.67000008  11.77999973  49.86000061
C    16.00000000  12.10999966  51.05999756
C    14.60999966  12.20999908  51.10000229
C    24.47000122  12.86000061  50.50000000
H    24.91893005  12.18304348  51.22683716
H    19.88000107  12.86000061  52.74000168
H    18.89999962  10.82999992  48.23999786
H    21.32999802  11.16000080  47.63000107
H    23.68000031  11.52999973  48.29999924
H    22.25000000  13.10999966  52.08000183
H    14.02999973  12.39999962  51.98999786
H    25.02000046  12.81999969  49.54999924
H    24.59000015  13.88000011  50.87999725
S    13.40000057  10.98000050  47.52999878
C    10.67000008  11.03000069  48.25000000
C    11.98999977  11.19999981  48.59000397
C    12.43000031  11.68000031  49.86999893
C    11.44000053  11.97000027  50.79000092
C    10.08999920  11.64000034  50.56000137
C     9.06000042  12.02000046  51.45999908
C     7.73999977  11.90000057  51.09000397
C     7.31999969  11.26000023  49.88999939
C     8.30000019  10.95999908  48.97999573
C     9.68000031  11.21999931  49.23999786
C    13.86999989  11.90000057  49.94999695
C    14.55000019  11.36999989  48.81999969
C    15.93999958  11.30000019  48.75999832
C     5.84999990  11.06999969  49.59999847
H     5.61570120  11.24039936  48.54920578
H    10.36999893  10.57999992  47.30999756
H    11.75000000  12.35999966  51.76000214
H     9.30000019  12.38999939  52.45999908
H     7.05999947  12.20000076  51.88000107
H     8.14999962  10.69000053  47.94000244
H    16.42000008  10.77999973  47.94000244
H     5.27999973  11.77999973  50.21999741
H     5.49000025  10.08999920  49.93000031
