96

S    16.61000061  12.50000000  58.48999786
C    19.34000015  12.51000023  57.93000031
C    18.06999969  12.15999985  57.52999878
C    17.81999969  11.72000027  56.18999863
C    18.89999962  11.43000031  55.37000275
C    20.22000122  11.68000031  55.81999969
C    21.35999870  11.56000042  54.98000336
C    22.62000084  11.97999954  55.31999969
C    22.82999992  12.61000061  56.56999969
C    21.77999878  12.68000031  57.47000122
C    20.45999908  12.30000019  57.09000015
C    16.38000107  11.65999985  56.02000427
C    15.59999943  12.20000076  57.06999969
C    14.21000004  12.30000019  57.05999756
C    24.20999908  12.96000004  57.08000183
H    24.73218918  12.09445286  57.48773575
H    19.54000092  13.00000000  58.88000107
H    18.84000015  10.98999977  54.38000107
H    21.32999802  11.11999989  53.97999573
H    23.47999954  11.80999947  54.66999817
H    22.04999924  13.10999966  58.43000031
H    13.63000011  12.51999950  57.95000076
H    24.82999992  13.48000050  56.32999802
H    24.11000061  13.63999939  57.93000031
S    13.27000046  10.42000008  53.69999695
C    10.51000023  10.52999973  54.22999954
C    11.79999924  10.85999966  54.59999847
C    12.11999989  11.50000000  55.84000015
C    11.10000038  11.77000046  56.72999954
C     9.76000023  11.54000092  56.33999634
C     8.69000053  11.69000053  57.25999832
C     7.39000034  11.28000069  57.05999756
C     7.11000013  10.77000046  55.76000214
C     8.09000015  10.54999924  54.81999969
C     9.44999981  10.84000015  55.12000275
C    13.53999996  11.82999992  55.91999817
C    14.30999947  11.21999931  54.89999771
C    15.67999935  11.05000019  54.97000122
C     5.71000004  10.34000015  55.43000031
H     5.20560360  11.12145901  54.86166382
H    10.44999981   9.98999977  53.29000092
H    11.28999901  12.03999996  57.77000046
H     8.92000008  12.03999996  58.27000046
H     6.58999968  11.28000069  57.78999710
H     7.86999989  10.10000038  53.86000061
H    16.21000099  10.48999977  54.19000244
H     5.15999985  10.08999920  56.35000229
H     5.80999947   9.42000008  54.84000397
S    17.02999878  12.81000042  52.63000107
C    19.75000000  12.84999943  51.79000092
C    18.44000053  12.48999977  51.59999847
C    18.05999947  12.05000019  50.28999710
C    18.97999954  11.85999966  49.27000046
C    20.29000092  12.36999989  49.40999985
C    21.32999802  12.25999928  48.43999863
C    22.63000107  12.56999969  48.76999664
C    22.96999931  13.26000023  49.97000122
C    21.97000122  13.42000008  50.90000153
C    20.65000153  12.90999985  50.70000076
C    16.61999893  11.90999985  50.18000031
C    15.92000008  12.23999977  51.37000275
C    14.52999973  12.31999969  51.39999771
C    24.41999817  13.56999969  50.27000046
H    24.82520676  12.89465714  51.02353668
H    20.13999939  13.26000023  52.71999741
H    18.61999893  11.44000053  48.34000015
H    21.02999878  11.80999947  47.50000000
H    23.32999992  12.28999996  47.98999786
H    22.18000031  13.81000042  51.88999939
H    14.04000092  12.72999954  52.28000259
H    25.02000046  13.60999966  49.34999847
H    24.54000092  14.57999992  50.68000031
S    13.43999958  11.44999981  47.65999603
C    10.77000046  11.14999962  48.40999985
C    12.02999973  11.59999943  48.72000122
C    12.38000011  11.96000004  50.06000137
C    11.39999962  12.03999996  51.03000259
C    10.05000019  11.77000046  50.68000031
C     8.93999958  11.96000004  51.55000305
C     7.64999962  11.61999893  51.23000336
C     7.31999969  11.13000011  49.93999863
C     8.36000061  11.02000046  49.05000305
C     9.72000027  11.32999992  49.34999847
C    13.81999969  12.10000038  50.21999741
C    14.52000046  11.80999947  49.02999878
C    15.90000057  11.64000034  49.01000214
C     5.93999958  10.55999947  49.68000031
H     5.44443083  11.17592144  48.92956543
H    10.52999973  10.72999954  47.43000031
H    11.68000031  12.39999962  52.02000046
H     9.11000061  12.34000015  52.56000137
H     6.81999969  11.59999943  51.93000031
H     8.26000023  10.60999966  48.04999924
H    16.44000053  11.51000023  48.06999969
H     5.35000038  10.52000046  50.59999847
H     5.92000008   9.55000019  49.26000214
