96

S    16.65999985  12.15000057  58.47999954
C    19.40999985  12.15000057  57.84000015
C    18.09999847  11.97000027  57.45999908
C    17.77000046  11.61999893  56.11000061
C    18.73999977  11.39999962  55.14999771
C    20.09000015  11.64999962  55.51000214
C    21.12999916  11.54000092  54.54000092
C    22.43000031  11.69999981  54.95999908
C    22.75000000  12.18999958  56.25999832
C    21.77000046  12.23999977  57.22000122
C    20.43000031  11.95000076  56.86999893
C    16.32999992  11.65999985  55.90000153
C    15.60999966  12.05999947  57.04999924
C    14.22999954  12.18000031  57.05999756
C    24.17000008  12.61999989  56.53999710
H    24.55297470  12.10227394  57.41942215
H    19.68000031  12.61000061  58.79000092
H    18.53000069  11.02000046  54.15000153
H    20.97999954  11.35000038  53.47999954
H    23.19000053  11.49000072  54.22000122
H    21.97999954  12.48999977  58.26000214
H    13.73000050  12.42000008  58.00000000
H    24.80999947  12.51000023  55.65000153
H    24.25000000  13.71000099  56.63000107
S    13.10999966  11.00000000  53.46000290
C    10.40999985  11.05999947  54.03999710
C    11.69999981  11.28999901  54.47999954
C    12.02000046  11.73999977  55.79999924
C    11.00000000  11.94000053  56.72000122
C     9.65999985  11.77000046  56.29000092
C     8.60000038  11.72000027  57.25000000
C     7.37999964  11.21999931  56.88000107
C     7.05999947  10.90999985  55.52999878
C     8.05000019  10.90000057  54.58000183
C     9.35999966  11.31999969  54.95999908
C    13.45999908  11.82999992  55.94999695
C    14.19000053  11.46999931  54.78000259
C    15.57999992  11.32999992  54.77000427
C     5.60999966  10.55999947  55.27000046
H     5.10402155  11.18712807  54.53597260
H    10.24000072  10.57000065  53.09000015
H    11.21000099  12.30000019  57.71999741
H     8.84000015  11.84999943  58.29999924
H     6.56000042  11.23999977  57.58999634
H     7.86000013  10.62999916  53.54999924
H    15.97000027  11.10000038  53.77999878
H     5.21000004  10.82999992  56.25000000
H     5.51000023   9.48999977  55.02999878
S    13.55000019   8.82999992  50.56999969
C    10.88999939   8.48999977  51.29000092
C    12.22000027   8.22000027  51.56000137
C    12.56999969   7.51999950  52.75000000
C    11.59999943   6.97000027  53.56999969
C    10.25000000   7.26000023  53.27000046
C     9.25000000   6.71000004  54.13000107
C     7.92000008   6.94999981  53.85000229
C     7.55000019   7.63999987  52.67000198
C     8.47000027   8.13000011  51.77000046
C     9.85000038   7.99000025  52.09999847
C    14.00000000   7.68000031  52.95999908
C    14.63999939   8.36000061  51.88999939
C    15.93999958   8.80999947  52.04999924
C     6.10000038   8.05999947  52.54000092
H     5.63606501   7.62461424  51.65495682
H    10.72999954   8.97000027  50.33000183
H    11.97999954   6.51000023  54.47999954
H     9.53999996   6.12999964  54.99000168
H     7.20000029   6.57000017  54.58000183
H     8.23999977   8.71000004  50.87999725
H    16.38000107   9.36999989  51.23000336
H     5.51999998   7.77999973  53.43000031
H     6.19999981   9.15000057  52.50000000
S    17.23999977   7.11000013  55.40999985
C    19.88999939   7.44999981  54.61999893
C    18.56999969   7.76999998  54.43000031
C    18.12999916   8.53999996  53.30999756
C    19.11000061   8.90999985  52.39999771
C    20.50000000   8.80999947  52.69000244
C    21.38999939   9.28999996  51.68000031
C    22.72999954   9.09000015  51.91999817
C    23.16999817   8.40999985  53.08000183
C    22.29999924   7.76999998  53.94000244
C    20.89999962   8.01999950  53.81999969
C    16.69000053   8.46000004  53.18000031
C    16.07999992   7.69999981  54.20999908
C    14.73999977   7.35000038  54.09999847
C    24.63999939   8.13000011  53.25000000
H    25.04288101   8.42686081  54.21833038
H    20.15999985   6.61000013  55.26000214
H    18.76000023   9.15000057  51.39999771
H    21.04000092   9.81000042  50.79000092
H    23.43000031   9.47000027  51.18000031
H    22.65000153   7.07999992  54.69999695
H    14.30999947   6.74000025  54.89999771
H    25.25000000   8.63000011  52.49000168
H    24.76000023   7.04999971  53.08000183
