96

S    16.48999977  11.72999954  58.54000092
C    19.22000122  11.96000004  57.87000275
C    17.93000031  11.64999962  57.50999832
C    17.56999969  11.25000000  56.18000031
C    18.56999969  11.21999931  55.21999741
C    19.92000008  11.46000004  55.59000015
C    21.00000000  11.26999950  54.68999863
C    22.30999947  11.44999981  55.08999634
C    22.62000084  12.10000038  56.31999969
C    21.59000015  12.30000019  57.21000290
C    20.27000046  11.84999943  56.93000031
C    16.13999939  11.13999939  55.96000290
C    15.43000031  11.36000061  57.15999985
C    14.06999969  11.68000031  57.21000290
C    24.00000000  12.53000069  56.75000000
H    24.44241714  11.78074455  57.40649033
H    19.50000000  12.22000027  58.88999939
H    18.36000061  10.82999992  54.22999954
H    20.85000038  10.98999977  53.64999771
H    23.03999901  11.09000015  54.38000107
H    21.83000183  12.76999950  58.15999985
H    13.69999981  12.06999969  58.15999985
H    24.70999908  12.79000092  55.96000290
H    23.92999840  13.43000031  57.37999725
S    12.94000053  10.55999947  53.52000427
C    10.26999950  10.51000023  54.22999954
C    11.54000092  10.90999985  54.54999924
C    11.89000034  11.46999931  55.81999969
C    10.95000076  11.72999954  56.79999924
C     9.61999989  11.32999992  56.51000214
C     8.51000023  11.40999985  57.39999771
C     7.23000002  11.10999966  57.01000214
C     6.94000006  10.72999954  55.66999817
C     7.96000004  10.53999996  54.77000427
C     9.28999996  10.80999947  55.20999908
C    13.32999992  11.44999981  56.04999924
C    13.99000072  10.95999908  54.88999939
C    15.36999893  10.88999939  54.80999756
C     5.55999994  10.18000031  55.38999939
H     4.93545532  10.80454445  54.75125885
H     9.94000053  10.14000034  53.26000214
H    11.23999977  11.87999916  57.83000183
H     8.73999977  11.47999954  58.46000290
H     6.43000031  11.07999992  57.74000168
H     7.76999998  10.29000092  53.73000336
H    15.85999966  10.52999973  53.90999603
H     5.10999966  10.01999950  56.38000107
H     5.68000031   9.15000057  55.02999878
S    17.02999878  12.55000019  52.56000137
C    19.70000076  12.69000053  51.86999893
C    18.45999908  12.17000008  51.56999969
C    18.05999947  11.51999950  50.35999680
C    19.04000092  11.39000034  49.40000153
C    20.36999893  11.82999992  49.65000153
C    21.48999977  11.51999950  48.83999634
C    22.80999947  11.82000065  49.12000275
C    23.09999847  12.64000034  50.24000168
C    22.04000092  12.92000008  51.07999802
C    20.69999886  12.48000050  50.89000320
C    16.61999893  11.40999985  50.18000031
C    15.93999958  11.87000084  51.33999634
C    14.55999947  12.05000019  51.40999603
C    24.53000069  13.02000046  50.54999924
H    25.02657509  12.38154602  51.28067780
H    19.90999985  13.38999939  52.68000031
H    18.85000038  10.81999969  48.50000000
H    21.30000114  11.07999992  47.85999680
H    23.54000092  11.39000034  48.44999695
H    22.20999908  13.45999908  52.01000214
H    14.09000015  12.53999901  52.25999832
H    25.07999802  13.05999947  49.61000061
H    24.69000053  14.04000092  50.90000153
S    13.38999939  10.78999996  47.77999878
C    10.72000027  10.78999996  48.37999725
C    11.97999954  11.17000008  48.79000092
C    12.35999966  11.68000031  50.06999969
C    11.30000019  11.92999935  50.90999985
C     9.96999931  11.63000011  50.52999878
C     8.85000038  11.94000053  51.36000061
C     7.55999994  11.59000015  51.03000259
C     7.30000019  10.98999977  49.77000427
C     8.31999969  10.70000076  48.88000107
C     9.63000011  11.10999966  49.23999786
C    13.80000019  11.67000008  50.30000305
C    14.46000004  11.26999950  49.10999680
C    15.84000015  11.14999962  49.05000305
C     5.91000032  10.42000008  49.56999969
H     5.39442062  10.91409683  48.74650192
H    10.52999973  10.31999969  47.42000198
H    11.46999931  12.15000057  51.95999908
H     9.02999973  12.32999992  52.35000229
H     6.83000040  11.54999924  51.83000183
H     8.28999996  10.01999950  48.02999878
H    16.34000015  10.69000053  48.20000076
H     5.26999998  10.69000053  50.41999817
H     5.89999962   9.34000015  49.36999893
