96

S    16.95000076  12.56999969  58.23999786
C    19.52999878  13.04999924  57.48000336
C    18.30999947  12.51999950  57.11000061
C    18.02000046  11.87000084  55.86999893
C    19.06999969  11.59000015  55.00999832
C    20.34000015  12.05000019  55.41999817
C    21.50000000  11.77999973  54.64000320
C    22.77000046  12.11999989  55.04000092
C    23.01000214  12.86000061  56.23000336
C    21.93000031  13.21000004  56.98999786
C    20.61000061  12.84999943  56.59000015
C    16.60000038  11.57999992  55.77999878
C    15.90000057  11.89000034  56.97999954
C    14.52000046  12.01000023  57.09999847
C    24.34999847  13.17000008  56.86999893
H    24.69895744  12.45783997  57.61776733
H    19.64999962  13.48000050  58.47000122
H    19.04000092  10.92000008  54.15000153
H    21.27000046  11.23000050  53.73000336
H    23.68999863  11.68000031  54.68000031
H    22.01999855  13.73000050  57.94000244
H    14.15999985  12.44999981  58.02000046
H    25.06999969  13.02999973  56.05999756
H    24.47999954  14.22000027  57.16999817
S    13.22000027  10.81999969  53.59000397
C    10.51000023  10.95999908  54.36999893
C    11.82999992  11.23000050  54.61000061
C    12.32999992  11.73999977  55.84999847
C    11.38000011  12.05000019  56.81000137
C     9.98999977  11.77999973  56.65000153
C     9.03999996  11.92999935  57.70000076
C     7.73000002  11.56999969  57.52999878
C     7.31999969  11.03999996  56.26999664
C     8.22000027  10.76000023  55.27000046
C     9.57999992  11.18000031  55.40999985
C    13.78000069  11.71000004  55.94999695
C    14.45000076  11.23000050  54.79000092
C    15.82999992  11.05999947  54.72999954
C     5.93999958  10.44999981  56.12999725
H     5.42101908  10.92632484  55.29820633
H    10.18000031  10.44999981  53.46000290
H    11.57999992  12.34000015  57.83000183
H     9.40999985  12.13000107  58.70999908
H     7.03999996  11.46000004  58.36000061
H     8.13000011  10.01999950  54.47999954
H    16.31999969  10.65999985  53.85000229
H     5.46000004  10.67000008  57.09000015
H     5.93999958   9.35999966  56.00999832
S    13.55000019   8.84000015  50.52000046
C    10.85999966   8.34999943  51.16000366
C    12.18999958   8.19999981  51.46999741
C    12.64999962   7.68000031  52.71999741
C    11.69999981   7.28999996  53.64999771
C    10.31000042   7.34000015  53.36000061
C     9.30999947   6.96000004  54.31000137
C     7.97999954   7.07999992  54.01000214
C     7.57999992   7.63999987  52.76000214
C     8.51000023   8.01000023  51.81999969
C     9.89999962   7.90000010  52.11000061
C    14.09999943   7.62000036  52.80000305
C    14.73000050   8.26000023  51.70000076
C    16.07999992   8.57999992  51.68000031
C     6.11999989   7.96000004  52.50000000
H     5.67644930   7.32329035  51.73451614
H    10.52000046   8.96000004  50.31999969
H    12.02000046   6.80999994  54.56999969
H     9.64999962   6.65000010  55.28999710
H     7.26000023   6.71999979  54.73999786
H     8.40999985   8.56000042  50.89000320
H    16.46000099   9.36999989  51.03000259
H     5.58000040   7.83999968  53.44999695
H     6.06999969   9.00000000  52.15999985
S    17.43000031   7.40000010  55.14999771
C    20.19000053   7.72000027  54.47999954
C    18.85000038   7.82999992  54.18000031
C    18.36000061   8.36000061  52.94000244
C    19.27000046   8.92000008  52.05999756
C    20.65999985   8.82000065  52.34000397
C    21.60000038   9.32999992  51.40999603
C    22.95000076   9.30999947  51.66999817
C    23.38999939   8.85999966  52.94000244
C    22.55000114   8.19999981  53.81000137
C    21.14999962   8.22000027  53.55999756
C    16.94000053   8.18000031  52.71999741
C    16.26000023   7.65999985  53.85000229
C    14.89999962   7.40999985  53.93000031
C    24.82000160   9.15000057  53.31999969
H    25.11924744   9.02175140  54.36024094
H    20.65999985   7.32999992  55.38000107
H    19.01000023   9.42000008  51.13999939
H    21.28999901   9.77000046  50.45999908
H    23.64999962   9.80000019  50.98999786
H    22.96999931   7.76999998  54.71000290
H    14.34999943   7.17999983  54.84000397
H    24.82999992  10.24000072  53.20000076
H    25.43000031   8.67000008  52.54000092
