96

S    17.04000092  12.58999920  58.34000015
C    19.69000053  12.81999969  57.50000000
C    18.43000031  12.30999947  57.28000259
C    18.07999992  11.65999985  56.05999756
C    19.02000046  11.56999969  55.05000305
C    20.29999924  12.13000107  55.21999741
C    21.34000015  11.92000008  54.27000046
C    22.60999870  12.38999939  54.47999954
C    22.93999863  13.12999916  55.65000153
C    21.96000099  13.32999992  56.59000015
C    20.65000153  12.77999973  56.45999908
C    16.68000031  11.26999950  56.12999725
C    15.95000076  11.71000004  57.25999832
C    14.55999947  11.65999985  57.38999939
C    24.37999916  13.35999966  56.07999802
H    24.71470642  12.62649155  56.81350708
H    19.96000099  13.31999969  58.43999863
H    18.77000046  11.05999947  54.10999680
H    21.12999916  11.36000061  53.36000061
H    23.42000008  12.22000027  53.77999878
H    22.30999947  13.69999981  57.55000305
H    13.99000072  11.98999977  58.26000214
H    24.96999931  13.38000107  55.15999603
H    24.43000031  14.37000084  56.47999573
S    13.55999947  10.21000004  53.80000305
C    10.80999947  10.29999924  54.40000153
C    12.10999966  10.53999996  54.77000427
C    12.41000080  11.07999992  56.05999756
C    11.36999989  11.32999992  56.93999863
C    10.01999950  11.05000019  56.60999680
C     8.90999985  11.10000038  57.49000168
C     7.68000031  10.59000015  57.14000320
C     7.40999985  10.05000019  55.84999847
C     8.47999954   9.90999985  55.00000000
C     9.75000000  10.47000027  55.31999969
C    13.83999920  11.19999981  56.29000092
C    14.56999969  10.72999954  55.17000198
C    15.95999908  10.70000076  55.06999969
C     6.05000019   9.50000000  55.51000214
H     5.38402939  10.22973347  55.04948807
H    10.59999943   9.81999969  53.43999863
H    11.61000061  11.76000023  57.90999985
H     9.15999985  11.39999962  58.50000000
H     6.86999989  10.47999954  57.84999847
H     8.27999973   9.47000027  54.02000046
H    16.44000053  10.34000015  54.16999817
H     5.71000004   9.19999981  56.51000214
H     6.30999994   8.67000008  54.84000397
S    13.48999977   8.30999947  50.75000000
C    10.85000038   7.69999981  51.58000183
C    12.20999908   7.62000036  51.77000046
C    12.72999954   6.97000027  52.93000031
C    11.87000084   6.54999971  53.94000244
C    10.47999954   6.67999983  53.76999664
C     9.61000061   6.05000019  54.71000290
C     8.27000046   5.88000011  54.43000031
C     7.69999981   6.46000004  53.27000046
C     8.52000046   7.13999987  52.38999939
C     9.94000053   7.16000032  52.52999878
C    14.15999985   7.16000032  53.08000183
C    14.70000076   7.86999989  51.97000122
C    16.03000069   8.27000046  51.93000031
C     6.21000004   6.25999975  53.13000107
H     5.68909979   6.70240784  52.28086090
H    10.47000027   8.27999973  50.73999786
H    12.31999969   6.32999992  54.89999771
H    10.05000019   5.55999994  55.56999969
H     7.57000017   5.44000053  55.13000107
H     8.05999947   7.48000050  51.46999741
H    16.26000023   8.88000011  51.05999756
H     6.09000015   5.18000031  53.09000015
H     5.78000021   6.57000017  54.09000015
S    17.53000069   6.96000004  55.34999847
C    20.15999985   7.75000000  54.62999725
C    18.79999924   7.75000000  54.40000153
C    18.27999878   8.25000000  53.15999985
C    19.11999893   8.96000004  52.31999969
C    20.52999878   8.88000011  52.50999832
C    21.42000008   9.47000027  51.56999969
C    22.77000046   9.31999969  51.72999954
C    23.32999992   8.57999992  52.81000137
C    22.49000168   8.15999985  53.81999969
C    21.07999992   8.21000004  53.64999771
C    16.86000061   7.99000025  53.02000046
C    16.28000069   7.34000015  54.15000153
C    14.96000099   6.91999960  54.20000076
C    24.82999992   8.56999969  52.90999985
H    25.21917152   8.90256405  53.87231445
H    20.51000214   7.25000000  55.52999878
H    18.78999901   9.50000000  51.44000244
H    21.05999947  10.18000031  50.81999969
H    23.44000053   9.90999985  51.10000229
H    22.89999962   7.86999989  54.78000259
H    14.56999969   6.46000004  55.10000229
H    25.22999954   9.27999973  52.16999817
H    25.22000122   7.57999992  52.64999771
