96

S    16.87999916  12.25000000  58.74000168
C    19.50000000  12.39999962  58.01000214
C    18.23999977  11.98999977  57.63000107
C    17.89999962  11.31000042  56.42000198
C    18.94000053  11.19999981  55.52000046
C    20.25000000  11.64999962  55.79999924
C    21.31999969  11.51000023  54.86999893
C    22.60999870  11.89000034  55.18000031
C    22.95999908  12.22000027  56.52000046
C    21.94000053  12.35999966  57.43999863
C    20.56999969  12.13999939  57.11999893
C    16.45000076  11.30000019  56.32999802
C    15.73999977  11.71000004  57.49000168
C    14.35999966  11.67000008  57.61000061
C    24.40999985  12.35000038  56.90000153
H    24.72954559  11.56178570  57.58169556
H    19.63999939  12.75000000  59.02999878
H    18.78000069  10.73999977  54.54999924
H    21.31000137  11.02000046  53.89999771
H    23.39999962  11.68000031  54.47999954
H    22.19000053  12.71999931  58.43000031
H    13.92000008  11.79999924  58.60000229
H    25.00000000  12.30999947  55.97999954
H    24.56999969  13.31999969  57.38999939
S    13.15000057  10.71000004  54.01000214
C    10.47000027  10.47000027  54.68999863
C    11.75000000  10.76000023  55.10000229
C    12.18000031  11.07999992  56.43000031
C    11.16000080  11.38000011  57.31999969
C     9.81000042  11.17000008  56.97000122
C     8.76999950  11.40999985  57.91999817
C     7.46000004  11.17000008  57.60000229
C     7.13000011  10.53999996  56.37000275
C     8.10999966  10.31999969  55.43000031
C     9.46000004  10.70000076  55.65999985
C    13.61999989  11.28999901  56.47999573
C    14.32999992  11.13000011  55.27000046
C    15.71000004  10.97000027  55.19000244
C     5.72000027  10.03999901  56.13999939
H     5.24899769  10.48245621  55.26222610
H    10.24000072  10.11000061  53.69999695
H    11.46999931  11.77999973  58.29000092
H     9.03999996  11.61000061  58.95999908
H     6.74000025  11.14999962  58.41999817
H     7.83999968   9.81000042  54.51000214
H    16.14999962  10.50000000  54.31000137
H     5.09999990  10.47000027  56.95000076
H     5.58000040   8.96000004  56.17000198
S    17.20000076  12.43000031  52.58999634
C    19.85000038  12.84000015  51.79999924
C    18.56999969  12.46000099  51.46999741
C    18.20999908  11.98999977  50.17000198
C    19.17000008  11.89000034  49.18000031
C    20.52000046  12.23000050  49.45000076
C    21.59000015  12.07999992  48.52000427
C    22.88000107  12.25000000  48.95999908
C    23.19999886  12.90999985  50.17000198
C    22.17000008  13.03999996  51.06999969
C    20.82999992  12.64999962  50.79000092
C    16.76000023  11.92000008  50.00999832
C    16.09000015  12.17000008  51.23000336
C    14.70999908  12.28999996  51.37000275
C    24.61000061  13.38000107  50.47999954
H    25.06798744  12.80035973  51.28147507
H    20.13000107  13.27999973  52.75000000
H    18.90999985  11.43000031  48.22999954
H    21.42000008  11.77000046  47.49000168
H    23.57000160  12.01000023  48.15000153
H    22.20000076  13.53999996  52.02999878
H    14.19999981  12.18999958  52.32999802
H    25.22000122  13.40000057  49.56999969
H    24.47999954  14.44000053  50.72999954
S    13.55000019  11.56000042  47.67000198
C    10.88000107  11.26999950  48.39000320
C    12.15000057  11.64000034  48.75999832
C    12.51999950  12.03999996  50.07999802
C    11.49000072  12.18999958  51.00000000
C    10.14999962  11.82000065  50.73999786
C     9.11000061  11.94000053  51.70000076
C     7.82999992  11.54999924  51.39999771
C     7.57999992  11.02000046  50.11000061
C     8.55000019  10.98000050  49.13000107
C     9.89000034  11.33999920  49.40000153
C    13.96000004  12.15000057  50.20000076
C    14.68000031  11.82000065  49.01000214
C    16.04999924  11.73999977  48.81999969
C     6.19999981  10.44999981  49.87999725
H     5.61255693  11.05159855  49.18638992
H    10.69000053  11.07999992  47.32999802
H    11.78999996  12.38999939  52.02000046
H     9.32999992  12.28999996  52.70999908
H     7.03999996  11.52999973  52.14000320
H     8.22000027  10.65999985  48.13999939
H    16.54000092  11.36000061  47.93000031
H     5.60999966  10.15999985  50.76000214
H     6.28999996   9.43000031  49.48999786
