96

S    16.82999992  12.00000000  58.50999832
C    19.51000023  11.90000057  57.83000183
C    18.20999908  11.65999985  57.44999695
C    17.79000092  11.21999931  56.14999771
C    18.71000099  11.05999947  55.13000107
C    20.03999901  11.38000011  55.47000122
C    20.96999931  11.23999977  54.40000153
C    22.29999924  11.56999969  54.52999878
C    22.67000008  12.05999947  55.80999756
C    21.77999878  12.34000015  56.81999969
C    20.45000076  11.85999966  56.77000046
C    16.34000015  11.07999992  56.11000061
C    15.65000057  11.51999950  57.27000427
C    14.27000046  11.69999981  57.29000092
C    24.13000107  12.32999992  56.07999802
H    24.45022583  11.91014862  57.03356171
H    19.79999924  12.32999992  58.79000092
H    18.37000084  10.85000038  54.12000275
H    20.56999969  10.95000076  53.43000031
H    23.02999878  11.50000000  53.73000336
H    22.03000069  12.84999943  57.76000214
H    13.81999969  12.13999939  58.16999817
H    24.72999954  11.95000076  55.24000168
H    24.13999939  13.43000031  56.00999832
S    13.17000008  10.57000065  53.61000061
C    10.46000004  10.59999943  54.22999954
C    11.73999977  10.95000076  54.59000015
C    12.05999947  11.30000019  55.93999863
C    11.00999928  11.44999981  56.83000183
C     9.67000008  11.17000008  56.46999741
C     8.56999969  11.21000099  57.36999893
C     7.28999996  10.90000057  56.95000076
C     7.02000046  10.65999985  55.58000183
C     8.05000019  10.52000046  54.66999817
C     9.36999989  10.77999973  55.12000275
C    13.50000000  11.35000038  56.17000198
C    14.21000004  11.00000000  54.99000168
C    15.59000015  10.93000031  54.93000031
C     5.61999989  10.22999954  55.19000244
H     5.12798023  10.81471920  54.41275024
H    10.32999992  10.15999985  53.23999786
H    11.21999931  11.68000031  57.87000275
H     8.78999996  11.38000011  58.41999817
H     6.48000002  10.97000027  57.65999603
H     7.92000008  10.18000031  53.63999939
H    16.06999969  10.81999969  53.96999741
H     4.97000027  10.18000031  56.06999969
H     5.77000046   9.21000004  54.81999969
S    13.35999966   8.45000076  51.05999756
C    10.73999977   7.53000021  51.65999985
C    12.07999992   7.63999987  51.97999954
C    12.55000019   7.07999992  53.20999908
C    11.68000031   6.39999962  54.05000305
C    10.27999973   6.42000008  53.82999802
C     9.30000019   5.82999992  54.68000031
C     7.96000004   5.82000017  54.36999893
C     7.51999950   6.38999987  53.15000153
C     8.42000008   6.98999977  52.30999756
C     9.81999969   6.94999981  52.56999969
C    13.96999931   7.30999994  53.39000320
C    14.55000019   7.96000004  52.28000259
C    15.85999966   8.43999958  52.36000061
C     6.06999969   6.15999985  52.78999710
H     5.67872047   6.76470423  51.97187042
H    10.31000042   7.99000025  50.77000046
H    11.98999977   6.05999994  55.02999878
H     9.72999954   5.45000029  55.59999847
H     7.21000004   5.49000025  55.08999634
H     8.10999966   7.32999992  51.31999969
H    16.43000031   8.89999962  51.56000137
H     5.95000029   5.10999966  52.49000168
H     5.45000029   6.32999992  53.68000031
S    17.28999901   6.71000004  55.68999863
C    19.92000008   7.35000038  54.99000168
C    18.56999969   7.53000021  54.79000092
C    18.05999947   8.07999992  53.56999969
C    18.96999931   8.59000015  52.65999603
C    20.36999893   8.42000008  52.77999878
C    21.28999901   8.90999985  51.81000137
C    22.63000107   8.67000008  51.97000122
C    23.12999916   7.96999979  53.09999847
C    22.22999954   7.60999966  54.08000183
C    20.81999969   7.71000004  53.95000076
C    16.61999893   7.90999985  53.40000153
C    16.06999969   7.17999983  54.48999786
C    14.73999977   6.77999973  54.43999863
C    24.61000061   7.95000029  53.43000031
H    24.90264320   8.70658684  54.15803528
H    20.20000076   6.74000025  55.84000015
H    18.53000069   9.11000061  51.81000137
H    20.94000053   9.57999992  51.03000259
H    23.44000053   9.18000031  51.45999908
H    22.56999969   7.36000013  55.07999802
H    14.27999973   6.10000038  55.13999939
H    25.15999985   8.10999966  52.50000000
H    24.84000015   6.96000004  53.82999802
