96

S    16.48999977  12.06999969  58.57999802
C    19.19000053  12.01000023  57.83000183
C    17.86999893  11.84000015  57.48000336
C    17.46000099  11.42000008  56.18000031
C    18.44000053  11.23000050  55.21999741
C    19.80999947  11.51999950  55.47000122
C    20.82999992  11.35000038  54.48999786
C    22.13000107  11.56000042  54.87999725
C    22.47999954  12.09000015  56.14999771
C    21.51000023  12.23999977  57.11000061
C    20.17000008  11.85999966  56.81999969
C    16.01000023  11.44000053  56.03000259
C    15.36000061  11.73999977  57.25000000
C    13.99000072  11.94000053  57.25000000
C    23.87000084  12.61999989  56.39999771
H    24.49454498  11.98126221  57.02454376
H    19.34999847  12.38000011  58.83999634
H    18.22000122  10.92000008  54.20000076
H    20.58000183  10.98999977  53.48999786
H    22.90999985  11.31000042  54.15999985
H    21.77000046  12.63000011  58.09000015
H    13.45999908  12.15000057  58.16999817
H    24.33000183  12.76000023  55.40999985
H    23.65999985  13.59000015  56.84999847
S    12.76999950  10.84000015  53.68000031
C    10.10000038  10.69000053  54.41999817
C    11.36999989  11.10999966  54.72999954
C    11.77000046  11.56999969  56.02000427
C    10.73999977  11.75000000  56.93000031
C     9.39999962  11.43000031  56.60999680
C     8.36000061  11.44999981  57.57999802
C     7.05999947  11.26000023  57.18999863
C     6.65999985  10.82999992  55.89000320
C     7.67000008  10.72000027  54.95999908
C     9.02000046  10.95999908  55.30000305
C    13.22000027  11.69999981  56.10000229
C    13.93000031  11.28000069  54.94999695
C    15.31000042  11.17000008  54.84000397
C     5.23000002  10.44999981  55.58000183
H     4.82352257  11.04188919  54.75991440
H    10.03999901  10.24000072  53.43000031
H    11.05999947  11.87999916  57.95999908
H     8.56999969  12.03999996  58.47000122
H     6.23000050  11.56000042  57.81999969
H     7.36999989  10.26999950  54.01000214
H    15.81999969  10.67999935  54.02000046
H     4.57999992  10.54999924  56.45999908
H     5.22000027   9.36999989  55.38000107
S    13.48000050   8.93000031  50.96000290
C    10.84000015   8.19999981  51.51000214
C    12.17000008   8.07999992  51.81000137
C    12.63000011   7.49000025  53.02999878
C    11.78999996   6.93000031  53.97999573
C    10.42000008   6.98000002  53.63999939
C     9.48000050   6.37000036  54.52000046
C     8.14999962   6.30000019  54.18000031
C     7.67000008   6.97000027  53.02000046
C     8.55000019   7.57000017  52.15000153
C     9.96000004   7.53999996  52.39999771
C    14.07999992   7.55999994  53.15000153
C    14.68000031   8.34000015  52.12999725
C    16.03999901   8.63000011  52.08000183
C     6.23000050   7.39000034  52.93000031
H     5.81803608   6.99934435  51.99953079
H    10.39999962   8.82000065  50.72000122
H    12.20999908   6.38999987  54.81999969
H     9.88000011   6.02999973  55.47000122
H     7.40000010   6.06999969  54.93999863
H     8.17000008   8.22000027  51.37000275
H    16.53000069   9.00000000  51.18999863
H     5.64000034   6.98999977  53.76999664
H     6.01000023   8.46000004  53.01000214
S    17.46000099   6.78999996  55.34000015
C    20.15000153   7.09000015  54.47999954
C    18.79999924   7.22000027  54.26000214
C    18.31999969   7.96000004  53.13999939
C    19.17000008   8.60000038  52.25999832
C    20.56999969   8.53999996  52.47000122
C    21.51000023   9.11999989  51.59000015
C    22.85000038   8.85000038  51.72000122
C    23.31000137   8.11999989  52.84999847
C    22.43000031   7.60999966  53.79000092
C    21.02999878   7.78999996  53.61999893
C    16.87000084   8.11999989  53.09000015
C    16.28000069   7.46999979  54.20000076
C    14.93000031   7.11999989  54.16999817
C    24.79000092   7.99000025  53.15000153
H    25.08726692   8.03954411  54.19751358
H    20.52999878   6.48999977  55.30000305
H    18.77000046   9.06000042  51.36000061
H    21.04000092   9.82999992  50.90999985
H    23.69999886   9.31999969  51.23000336
H    22.85000038   7.18999958  54.68999863
H    14.55999947   6.63000011  55.06000137
H    25.30999947   8.80999947  52.63999939
H    25.09000015   7.00999975  52.75000000
