96

S    16.57999992  12.02000046  58.55999756
C    19.29000092  12.09000015  57.77000046
C    17.97000122  11.89000034  57.45999908
C    17.53000069  11.61000061  56.11999893
C    18.50000000  11.42000008  55.14999771
C    19.88000107  11.46000004  55.48999786
C    20.89999962  11.10000038  54.55999756
C    22.21999931  11.28999901  54.87999725
C    22.65999985  11.77000046  56.13999939
C    21.68999863  11.97000027  57.09999847
C    20.29999924  11.77999973  56.81999969
C    16.09000015  11.43000031  56.09000397
C    15.39000034  11.69000053  57.29000092
C    14.00000000  11.75000000  57.39999771
C    24.05999947  12.25999928  56.38000107
H    24.73770905  11.62509155  56.95070267
H    19.54000092  12.60000038  58.68999863
H    18.19000053  11.00000000  54.20000076
H    20.59000015  10.80999947  53.55999756
H    22.98999977  11.21000099  54.12000275
H    21.87999916  12.38000011  58.08000183
H    13.50000000  12.13000107  58.27999878
H    24.53000069  12.43000031  55.40000153
H    24.01000023  13.27000046  56.79999924
S    12.88000011  10.85000038  53.67000198
C    10.21000004  10.59000015  54.40999985
C    11.50000000  10.85999966  54.79000092
C    11.82000065  11.09000015  56.17000198
C    10.80000019  11.18000031  57.09999847
C     9.44000053  11.00999928  56.75000000
C     8.36999989  11.23000050  57.65999603
C     7.11000013  10.76000023  57.36999893
C     6.85999966  10.31999969  56.04000092
C     7.79999971  10.47000027  55.05000305
C     9.17000008  10.67000008  55.38000107
C    13.25000000  11.32999992  56.29000092
C    13.93000031  11.09000015  55.07999802
C    15.31999969  11.07999992  54.97000122
C     5.49000025   9.80000019  55.65999985
H     4.92137527  10.46813393  55.01319122
H    10.00000000  10.25000000  53.40000153
H    11.13999939  11.51999950  58.06999969
H     8.55000019  11.64000034  58.66000366
H     6.32000017  10.82999992  58.09999847
H     7.63000011  10.25000000  54.00000000
H    15.84000015  10.92000008  54.02999878
H     4.94999981   9.56999969  56.58000183
H     5.58000040   8.82000065  55.15999603
S    13.53999996   8.65999985  50.76000214
C    10.80999947   8.30000019  51.38000107
C    12.13000107   8.23000050  51.75000000
C    12.56000042   7.82000017  53.04999924
C    11.59999943   7.36999989  53.94000244
C    10.24000072   7.34000015  53.53000259
C     9.30000019   6.81999969  54.45999908
C     7.96000004   7.05999947  54.22999954
C     7.49000025   7.59999990  53.01000214
C     8.38999939   7.97999954  52.04000092
C     9.78999996   7.86000013  52.25999832
C    14.00000000   7.90000010  53.25000000
C    14.67000008   8.36999989  52.09000015
C    16.02000046   8.69999981  52.14000320
C     6.01999998   7.88999987  52.78999710
H     5.62770796   7.34079123  51.93408966
H    10.52000046   8.61999989  50.38999939
H    11.84999943   6.98000002  54.92000198
H     9.61000061   6.30999994  55.37000275
H     7.26999998   6.89000034  55.05000305
H     8.18000031   8.47000027  51.09000397
H    16.52000046   8.92000008  51.19999695
H     5.46999979   7.57000017  53.68999863
H     5.88000011   8.96000004  52.61000061
S    17.40999985   7.09999990  55.41999817
C    20.05000114   7.62000036  54.66999817
C    18.71000099   7.86999989  54.48999786
C    18.27000046   8.51000023  53.29000092
C    19.13999939   8.89000034  52.28000259
C    20.52000046   8.67000008  52.49000168
C    21.54000092   9.06999969  51.59000015
C    22.88000107   8.89000034  51.84000015
C    23.29000092   8.13000011  52.97000122
C    22.36999893   7.76000023  53.90999603
C    20.98999977   8.00000000  53.68000031
C    16.81999969   8.40999985  53.25000000
C    16.17000008   7.73000002  54.31999969
C    14.80999947   7.44999981  54.29999924
C    24.75000000   7.86999989  53.27000046
H    25.11329460   8.41850471  54.13905716
H    20.36000061   6.94000006  55.45999908
H    18.76000023   9.28999996  51.33999634
H    21.27000046   9.64999962  50.70999908
H    23.62999916   9.31999969  51.18000031
H    22.73999977   7.17000008  54.75999832
H    14.42000008   6.75000000  55.02999878
H    25.42000008   7.96999979  52.41000366
H    24.89999962   6.80999994  53.52000427
