96

S    16.87999916  12.00000000  58.54999924
C    19.52999878  12.43999958  57.83000183
C    18.26000023  12.07999992  57.43999863
C    17.89999962  11.63000011  56.12999725
C    18.93000031  11.49000072  55.21999741
C    20.23999977  11.92999935  55.52000046
C    21.35999870  11.77000046  54.65000153
C    22.60000038  12.23000050  55.02999878
C    22.88999939  12.81000042  56.29000092
C    21.83000183  12.93000031  57.15999985
C    20.52000046  12.48000050  56.81999969
C    16.45000076  11.56000042  55.97999954
C    15.75000000  11.73999977  57.19999695
C    14.37000084  11.84000015  57.25999832
C    24.27000046  13.27999973  56.72000122
H    24.79638100  12.66825962  57.45266724
H    19.85000038  12.58999920  58.86000061
H    18.68000031  11.10000038  54.23999786
H    21.11999893  11.32999992  53.68999863
H    23.36999893  12.23999977  54.26000214
H    21.97000122  13.32999992  58.15999985
H    13.76999950  12.10999966  58.13999939
H    24.80999947  13.35000038  55.77000046
H    24.05999947  14.27999973  57.11999893
S    13.22000027  11.00999928  53.50999832
C    10.52000046  10.95999908  54.29000092
C    11.82999992  11.23000050  54.59000015
C    12.23999977  11.64999962  55.89000320
C    11.28999901  11.90999985  56.86999893
C     9.96999931  11.44999981  56.62000275
C     9.03999996  11.44000053  57.69000244
C     7.73999977  11.05999947  57.45999908
C     7.30999994  10.67999935  56.16000366
C     8.19999981  10.59000015  55.11000061
C     9.55999947  10.97000027  55.33000183
C    13.68000031  11.59999943  56.06999969
C    14.34000015  11.30000019  54.85000229
C    15.72999954  11.21999931  54.82999802
C     5.86999989  10.31999969  55.86000061
H     5.46954632  10.98503971  55.09484863
H    10.10000038  10.69000053  53.31999969
H    11.56000042  12.20999908  57.88000107
H     9.38000011  11.82000065  58.64999771
H     7.00999975  11.33999920  58.20999908
H     7.88999987  10.10000038  54.19000244
H    16.23999977  10.76000023  53.99000168
H     5.18000031  10.36000061  56.72000122
H     5.77000046   9.25000000  55.61999893
S    13.30999947   8.88000011  50.61000061
C    10.60999966   8.31999969  51.30000305
C    11.96000004   8.30000019  51.60999680
C    12.38999939   7.65999985  52.81000137
C    11.49000072   7.13000011  53.70999908
C    10.10000038   7.26999998  53.48999786
C     9.13999939   6.80999994  54.43999863
C     7.78999996   6.90000010  54.18000031
C     7.34000015   7.64999962  53.06000137
C     8.26000023   8.05000019  52.12999725
C     9.67000008   7.86999989  52.25999832
C    13.83999920   7.65999985  52.90000153
C    14.47000027   8.36000061  51.84000015
C    15.85000038   8.56999969  51.86999893
C     5.84999990   7.73999977  52.81999969
H     5.48586416   7.42584372  51.84183121
H    10.19000053   8.78000069  50.40999985
H    11.92000008   6.60000038  54.55999756
H     9.46000004   6.25999975  55.31999969
H     7.11999989   6.30999994  54.79999924
H     7.96000004   8.52999973  51.19999695
H    16.42000008   9.17000008  51.17000198
H     5.40000010   7.13000011  53.61999893
H     5.47999954   8.73999977  53.09000015
S    16.95000076   7.03999996  55.37000275
C    19.70000076   7.65999985  54.95999908
C    18.38000107   7.75000000  54.59000015
C    17.97999954   8.39999962  53.37999725
C    18.96999931   8.80999947  52.50999832
C    20.34000015   8.73000050  52.85999680
C    21.35000038   9.17000008  51.95000076
C    22.67999840   9.13999939  52.29999924
C    23.05000114   8.53999996  53.53000259
C    22.11000061   8.10000038  54.43000031
C    20.72000122   8.19999981  54.13999939
C    16.59000015   8.19999981  53.00000000
C    15.90000057   7.48000050  54.00000000
C    14.52999973   7.23999977  54.05000305
C    24.48999786   8.09000015  53.72000122
H    24.97595215   8.60453796  54.54897690
H    20.17000008   7.00999975  55.70000076
H    18.63999939   8.92000008  51.47999573
H    21.15999985   9.67000008  51.00999832
H    23.36999893   9.63000011  51.60999680
H    22.50999832   7.60999966  55.31999969
H    13.99000072   6.94999981  54.94999695
H    24.97999954   8.34999943  52.77000046
H    24.34999847   7.02000046  53.87000275
