96

S    16.70999908  12.13999939  58.70999908
C    19.42000008  12.35000038  58.02000046
C    18.13999939  12.01000023  57.67000198
C    17.84000015  11.36000061  56.43000031
C    18.86000061  11.13999939  55.51000214
C    20.17000008  11.56999969  55.80999756
C    21.28000069  11.40999985  54.93000031
C    22.56999969  11.63000011  55.34999847
C    22.82999992  12.27000046  56.58000183
C    21.80000114  12.51000023  57.45999908
C    20.46999931  12.13999939  57.09999847
C    16.39999962  11.31999969  56.23000336
C    15.64000034  11.65999985  57.37999725
C    14.28999996  12.00000000  57.30999756
C    24.20999908  12.79000092  56.95000076
H    24.62821388  12.23001766  57.78643036
H    19.60000038  12.69000053  59.03999710
H    18.67000008  10.77000046  54.51000214
H    21.00000000  11.18000031  53.89999771
H    23.34000015  11.52999973  54.59000015
H    22.10000038  12.86000061  58.43999863
H    13.76000023  12.46000099  58.13000107
H    24.90999985  12.74000072  56.11999893
H    24.18999863  13.86000061  57.19999695
S    13.25000000  10.27999973  53.86000061
C    10.51000023  10.43000031  54.43000031
C    11.79999924  10.72999954  54.78000259
C    12.13999939  11.31000042  56.04999924
C    11.14999962  11.51999950  56.98999786
C     9.81999969  11.14999962  56.69000244
C     8.76000023  11.56000042  57.55000305
C     7.46000004  11.33999920  57.14000320
C     7.13000011  10.67000008  55.93000031
C     8.14000034  10.31999969  55.06999969
C     9.50000000  10.59999943  55.40000153
C    13.56999969  11.51999950  56.20999908
C    14.28999996  10.95999908  55.12000275
C    15.67999935  10.92000008  55.10000229
C     5.71000004  10.25000000  55.63000107
H     5.22721291  10.88188267  54.88452148
H    10.39999962   9.89999962  53.48999786
H    11.40999985  12.03999996  57.90999985
H     8.93999958  11.95000076  58.54999924
H     6.69000053  11.50000000  57.88000107
H     7.90999985   9.92999935  54.08000183
H    16.28000069  10.52000046  54.27999878
H     5.19999981  10.36000061  56.59000015
H     5.84000015   9.19999981  55.33000183
S    16.76000023  12.77999973  52.56000137
C    19.54000092  12.69000053  51.84000015
C    18.22000122  12.38999939  51.62000275
C    17.88999939  11.92000008  50.31000137
C    18.90999985  11.52999973  49.45999908
C    20.29000092  11.77000046  49.69999695
C    21.35999870  11.44000053  48.82999802
C    22.65000153  11.76000023  49.18000031
C    22.95000076  12.56999969  50.31000137
C    21.93000031  12.89000034  51.17000198
C    20.59999847  12.43999958  50.93000031
C    16.45000076  11.87999916  50.10000229
C    15.70000076  12.34000015  51.20999908
C    14.30999947  12.35000038  51.25999832
C    24.37999916  12.93000031  50.65999985
H    24.84298325  12.30319309  51.42214203
H    19.84000015  13.20000076  52.76000214
H    18.70000076  10.97000027  48.55999756
H    21.02999878  11.06999969  47.85999680
H    23.38000107  11.69999981  48.36999893
H    22.10000038  13.56999969  52.01000214
H    13.73999977  12.55000019  52.15999985
H    24.97999954  12.89000034  49.73999786
H    24.48999786  13.99000072  50.93000031
S    13.28999996  11.00000000  47.68000031
C    10.52000046  11.13999939  48.22999954
C    11.82999992  11.38000011  48.61000061
C    12.20000076  11.79999924  49.93000031
C    11.21000099  11.94000053  50.89000320
C     9.86999989  11.63000011  50.56000137
C     8.76999950  11.77999973  51.45000076
C     7.46999979  11.46999931  51.13999939
C     7.14999962  10.93000031  49.86000061
C     8.15999985  10.92000008  48.92000198
C     9.51000023  11.26000023  49.20999908
C    13.63000011  11.97000027  50.08999634
C    14.37999916  11.43000031  49.01000214
C    15.76000023  11.31000042  49.02000046
C     5.71000004  10.64000034  49.52000046
H     5.23338223  11.23043728  48.73749161
H    10.25000000  10.80999947  47.23999786
H    11.44999981  12.36999989  51.86000061
H     8.90999985  12.09000015  52.48000336
H     6.63999987  11.64999962  51.81999969
H     8.02999973  10.53999996  47.90999985
H    16.27000046  10.90999985  48.15000153
H     4.94000006  10.64000034  50.30000305
H     5.71000004   9.61000061  49.10999680
