96

S    16.35000038  11.94000053  58.54000092
C    19.07999992  11.95000076  57.85999680
C    17.79000092  11.63000011  57.54000092
C    17.40999985  11.25000000  56.20999908
C    18.42000008  11.02000046  55.30000305
C    19.77000046  11.35000038  55.61000061
C    20.84000015  11.25000000  54.68000031
C    22.13999939  11.63000011  54.89999771
C    22.49000168  12.02999973  56.22000122
C    21.50000000  12.10000038  57.18000031
C    20.13999939  11.76000023  56.93999863
C    15.97000027  11.30000019  55.98999786
C    15.26999950  11.67000008  57.15999985
C    13.89000034  11.82000065  57.19999695
C    23.92000008  12.46000099  56.45000076
H    24.36913109  11.83264256  57.21993637
H    19.22999954  12.61999989  58.70999908
H    18.22000122  10.51000023  54.36000061
H    20.62000084  11.03000069  53.63999939
H    22.93999863  11.44000053  54.19000244
H    21.68000031  12.46999931  58.18999863
H    13.27000046  12.13000107  58.04000092
H    24.54000092  12.55000019  55.54999924
H    23.84000015  13.48999977  56.84000015
S    12.86000061  10.67000008  53.46000290
C    10.14999962  10.59000015  54.15000153
C    11.44000053  10.92000008  54.50000000
C    11.78999996  11.30000019  55.83000183
C    10.75000000  11.44000053  56.72999954
C     9.40999985  11.19999981  56.35000229
C     8.31999969  11.33999920  57.25999832
C     7.03000021  10.98999977  56.95000076
C     6.69000053  10.51000023  55.65999985
C     7.71000004  10.42000008  54.73999786
C     9.06999969  10.67999935  55.06000137
C    13.22000027  11.52999973  56.00999832
C    13.89000034  11.19999981  54.80999756
C    15.27999973  11.05999947  54.79000092
C     5.26000023  10.17000008  55.31999969
H     4.78842211  10.81306076  54.57690811
H     9.92999935  10.19999981  53.15999985
H    10.97000027  11.64999962  57.77999878
H     8.56000042  11.56999969  58.29999924
H     6.28000021  11.23999977  57.70000076
H     7.46999979  10.03000069  53.75000000
H    15.82999992  10.78999996  53.89999771
H     4.59999990  10.24000072  56.19999695
H     5.22000027   9.10000038  55.06999969
S    13.71000099   8.89999962  50.93999863
C    11.05999947   8.21000004  51.35000229
C    12.36999989   8.10999966  51.77999878
C    12.82999992   7.42999983  52.95000076
C    11.80999947   6.86999989  53.70999908
C    10.44999981   6.98000002  53.34999847
C     9.46000004   6.48999977  54.25000000
C     8.11999989   6.67000008  53.97999573
C     7.72000027   7.26999998  52.75000000
C     8.64000034   7.69000006  51.81999969
C    10.03000069   7.68000031  52.15999985
C    14.25000000   7.59000015  53.22999954
C    14.84000015   8.31999969  52.16999817
C    16.20000076   8.61999989  52.16999817
C     6.25000000   7.51999950  52.50999832
H     5.86750889   7.14459181  51.56085587
H    10.69000053   8.56999969  50.40000153
H    12.03999996   6.46000004  54.68999863
H     9.80000019   6.17999983  55.22999573
H     7.39000034   6.48000002  54.75999832
H     8.32999992   8.21000004  50.91999817
H    16.68000031   9.17000008  51.37000275
H     5.61999989   7.23000002  53.36000061
H     6.17000008   8.60999966  52.51999664
S    17.57999992   6.90000010  55.50000000
C    20.27000046   7.18999958  54.65999985
C    18.93000031   7.49000025  54.52000046
C    18.43000031   8.11999989  53.33000183
C    19.22000122   8.71000004  52.36000061
C    20.62000084   8.52999973  52.54000092
C    21.48999977   9.11000061  51.58000183
C    22.84000015   9.10000038  51.83000183
C    23.38000107   8.47999954  52.98999786
C    22.52000046   7.82000017  53.82999802
C    21.09999847   7.82000017  53.69999695
C    16.97999954   8.10000038  53.20999908
C    16.36999893   7.42000008  54.29999924
C    15.01000023   7.14999962  54.33000183
C    24.86000061   8.45000076  53.29000092
H    25.02290916   7.65670395  54.01955032
H    20.58000183   6.47000027  55.40999985
H    18.85000038   9.27999973  51.51000214
H    21.04999924   9.65999985  50.75000000
H    23.47999954   9.63000011  51.12999725
H    23.01000214   7.32999992  54.65999985
H    14.48999977   6.63999987  55.13000107
H    25.20000076   9.44000053  53.61999893
H    25.34000015   8.26000023  52.31999969
