96

S    16.69000053  12.17000008  58.62999725
C    19.40000153  12.55000019  57.94000244
C    18.13999939  12.10000038  57.62000275
C    17.79999924  11.57999992  56.32999802
C    18.84000015  11.36000061  55.45000076
C    20.15999985  11.75000000  55.79000092
C    21.21000099  11.71000004  54.82999802
C    22.46999931  12.18999958  55.13000107
C    22.79999924  12.60000038  56.44000244
C    21.81999969  12.71999931  57.39999771
C    20.48999977  12.32999992  57.05999756
C    16.36000061  11.46000004  56.12999725
C    15.59999943  11.80999947  57.27000427
C    14.22000027  11.90000057  57.31999969
C    24.18999863  13.12000084  56.72999954
H    24.63912010  12.40711117  57.42150116
H    19.67000008  13.07000065  58.86000061
H    18.61999893  11.11999989  54.41999817
H    21.02999878  11.16000080  53.90999603
H    23.23999786  12.03999996  54.38000107
H    21.97000122  13.27999973  58.31999969
H    13.71000099  12.35999966  58.15999985
H    24.76000023  13.19000053  55.79000092
H    24.11000061  14.15999985  57.08000183
S    13.26000023  10.77000046  53.60000229
C    10.57000065  10.38000011  54.18000031
C    11.79999924  10.84000015  54.61000061
C    12.13000107  11.36999989  55.90000153
C    11.14999962  11.36999989  56.86999893
C     9.85000038  11.07999992  56.38999939
C     8.80999947  11.00999928  57.36999893
C     7.49000025  10.85000038  57.04000092
C     7.17000008  10.24000072  55.79000092
C     8.18000031  10.11000061  54.86000061
C     9.50000000  10.60999966  55.07999802
C    13.55999947  11.49000072  56.14999771
C    14.29999924  11.18999958  54.98000336
C    15.67999935  11.03999996  54.97000122
C     5.82000017   9.59999943  55.56999969
H     5.25585079  10.16414928  54.82732010
H    10.36000061   9.98999977  53.18999863
H    11.31000042  11.46999931  57.94000244
H     9.10000038  11.47999954  58.30999756
H     6.63000011  10.90999985  57.69000244
H     8.00000000   9.78999996  53.83999634
H    16.18999863  10.69000053  54.08000183
H     5.32000017   9.59000015  56.53999710
H     5.92999983   8.55000019  55.25000000
S    13.71000099   8.39999962  50.68999863
C    10.98999977   8.01999950  51.31000137
C    12.30999947   7.85000038  51.63999939
C    12.71999931   7.32999992  52.90999985
C    11.69999981   7.03999996  53.79000092
C    10.32999992   7.05999947  53.43000031
C     9.35999966   6.39999962  54.22999954
C     8.03999996   6.38000011  53.81999969
C     7.62000036   7.03000021  52.63000107
C     8.56000042   7.57000017  51.77999878
C     9.92999935   7.62000036  52.16999817
C    14.14000034   7.48000050  53.18000031
C    14.78999996   8.06999969  52.05999756
C    16.13000107   8.43999958  52.09000015
C     6.17000008   7.36000013  52.41000366
H     5.75794983   6.82007217  51.55748367
H    10.72000027   8.45000076  50.34999847
H    12.07999992   6.57999992  54.69999695
H     9.68000031   6.02999973  55.20999908
H     7.30000019   5.96000004  54.50000000
H     8.21000004   8.10999966  50.90999985
H    16.53000069   8.85000038  51.17000198
H     5.65999985   7.07000017  53.34000015
H     6.17000008   8.46000004  52.43000031
S    17.46999931   6.81999969  55.47999954
C    20.17000008   7.59999990  54.95999908
C    18.82999992   7.57000017  54.61999893
C    18.36000061   8.10000038  53.37999725
C    19.17000008   8.73999977  52.47000122
C    20.52999878   8.82999992  52.84000015
C    21.45000076   9.32999992  51.88000107
C    22.79000092   9.38000011  52.16999817
C    23.29000092   8.82999992  53.37999725
C    22.43999863   8.26000023  54.29999924
C    21.04000092   8.22000027  54.03999710
C    16.92000008   8.00000000  53.15999985
C    16.31999969   7.23999977  54.19000244
C    14.94999981   7.03999996  54.22999954
C    24.73999977   9.11999989  53.72000122
H    25.11750984   8.38635063  54.43228149
H    20.48999977   7.11000013  55.86999893
H    18.85000038   9.15999985  51.52000046
H    20.95000076   9.68000031  50.97999954
H    23.46999931  10.01999950  51.59999847
H    22.85000038   8.05000019  55.27999878
H    14.57999992   6.51999998  55.11000061
H    24.56999969  10.14999962  54.02999878
H    25.29999924   9.11999989  52.77000046
