96

S    16.98999977  12.46999931  58.63999939
C    19.70999908  12.57999992  57.98999786
C    18.43000031  12.20999908  57.63999939
C    18.11000061  11.77999973  56.31000137
C    19.12999916  11.76000023  55.37000275
C    20.46999931  12.13000107  55.65999985
C    21.55999947  11.94000053  54.77000427
C    22.84000015  12.23999977  55.18000031
C    23.09000015  12.75000000  56.47999573
C    22.04999924  12.89000034  57.37999725
C    20.71000099  12.60000038  56.98999786
C    16.69000053  11.50000000  56.18999863
C    15.93999958  11.90999985  57.32999802
C    14.60000038  12.27000046  57.23999786
C    24.48999786  13.12999916  56.88000107
H    24.78939438  12.56685162  57.76392746
H    20.03000069  12.88000011  58.99000168
H    19.04000092  11.18000031  54.45000076
H    21.38999939  11.63000011  53.74000168
H    23.57999992  12.10000038  54.38999939
H    22.13000107  13.09000015  58.43999863
H    14.11999893  12.64999962  58.13000107
H    25.12000084  12.84999943  56.02000427
H    24.47000122  14.22000027  57.01000214
S    13.55000019  10.95999908  53.63999939
C    10.84000015  10.67999935  54.29999924
C    12.10999966  11.06999969  54.66999817
C    12.38999939  11.64000034  55.94999695
C    11.31000042  11.90999985  56.77000046
C     9.98999977  11.51999950  56.45999908
C     8.92000008  11.79999924  57.36000061
C     7.64999962  11.33999920  57.11000061
C     7.46999979  10.53999996  55.94999695
C     8.46000004  10.32999992  55.01999664
C     9.77000046  10.85000038  55.20999908
C    13.82999992  11.77000046  56.18000031
C    14.55999947  11.36000061  55.04000092
C    15.93999958  11.18999958  55.05000305
C     6.07999992  10.00000000  55.68999863
H     5.53149652  10.66247940  55.02039719
H    10.59000015  10.25000000  53.34000015
H    11.46999931  12.36999989  57.75000000
H     9.25000000  12.13999939  58.34000015
H     6.86999989  11.21000099  57.85999680
H     8.27000046   9.72999954  54.13000107
H    16.46000099  10.97000027  54.12000275
H     5.61999989   9.71000004  56.63999939
H     6.25000000   9.06999969  55.12000275
S    14.01000023   8.85999966  50.79999924
C    11.36999989   8.25000000  51.25000000
C    12.65999985   8.18000031  51.72000122
C    13.07999992   7.60999966  52.95999908
C    12.10000038   7.07999992  53.77999878
C    10.73999977   7.17999983  53.40000153
C     9.73999977   6.74000025  54.31999969
C     8.39999962   6.84000015  54.02000046
C     8.01000023   7.46000004  52.80000305
C     8.97000027   7.95000029  51.95000076
C    10.36999893   7.82000017  52.16999817
C    14.51000023   7.76999998  53.20000076
C    15.11999989   8.46000004  52.11999893
C    16.45000076   8.88000011  52.11000061
C     6.60000038   7.99000025  52.67000198
H     6.13052702   7.58454609  51.77373123
H    11.10999966   8.78999996  50.34000015
H    12.30000019   6.48999977  54.66999817
H    10.06000042   6.37000036  55.28999710
H     7.63999987   6.63000011  54.75999832
H     8.71000004   8.60999966  51.12999725
H    16.88999939   9.36999989  51.25000000
H     6.05000019   7.60999966  53.54000092
H     6.53999996   9.07999992  52.56999969
S    17.90999985   7.23000002  55.38000107
C    20.56999969   7.86999989  54.62999725
C    19.20999908   7.96000004  54.41999817
C    18.67000008   8.67999935  53.29999924
C    19.52000046   9.18000031  52.32999802
C    20.92000008   9.13000011  52.50999832
C    21.80999947   9.53999996  51.46999741
C    23.15999985   9.38000011  51.63999939
C    23.67000198   8.98999977  52.90999985
C    22.82999992   8.56000042  53.90999603
C    21.40999985   8.59000015  53.75000000
C    17.22999954   8.55000019  53.22999954
C    16.63999939   7.79999971  54.27999878
C    15.29000092   7.48000050  54.33000183
C    25.15999985   8.75000000  52.95999908
H    25.48773384   8.95661449  53.97882080
H    20.96999931   7.14999962  55.33000183
H    19.12999916   9.44000053  51.35000229
H    21.44000053   9.94000053  50.52999878
H    23.81999969   9.51000023  50.79000092
H    23.22000122   8.01999950  54.75999832
H    14.93999958   6.84000015  55.13000107
H    25.66999817   9.44999981  52.28000259
H    25.42000008   7.78999996  52.49000168
