96

S    17.19000053  12.11999989  58.55999756
C    19.85000038  12.11999989  57.88999939
C    18.57999992  11.69999981  57.55000305
C    18.25000000  11.26999950  56.23000336
C    19.25000000  11.19999981  55.27999878
C    20.51000214  11.78999996  55.52000046
C    21.56999969  11.71000004  54.56999969
C    22.88000107  11.97999954  54.92000198
C    23.23999786  12.46999931  56.19999695
C    22.15999985  12.67000008  57.04000092
C    20.82999992  12.20999908  56.86000061
C    16.79999924  11.30000019  56.11000061
C    16.05999947  11.64999962  57.27000427
C    14.67000008  11.69999981  57.27000427
C    24.70000076  12.63000011  56.55000305
H    25.15601730  11.98160172  57.29815292
H    20.09000015  12.46000099  58.88999939
H    18.94000053  10.92000008  54.27000046
H    21.38000107  11.25000000  53.61000061
H    23.68999863  11.87999916  54.20999908
H    22.36999893  13.09999943  58.01000214
H    14.14000034  11.90000057  58.20000076
H    25.10999870  12.50000000  55.54000092
H    24.84000015  13.63999939  56.95999908
S    13.64999962  10.88999939  53.55999756
C    10.97000027  10.77000046  54.20000076
C    12.23000050  11.18000031  54.58000183
C    12.51000023  11.59000015  55.91999817
C    11.52999973  11.71000004  56.88000107
C    10.21000004  11.40999985  56.45000076
C     9.19999981  11.38000011  57.44999695
C     7.97999954  10.82999992  57.15000153
C     7.62000036  10.65999985  55.79000092
C     8.55000019  10.72000027  54.78000259
C     9.92000008  10.92000008  55.13000107
C    13.96000004  11.57999992  56.06999969
C    14.73000050  11.18999958  54.93999863
C    16.10999870  11.00999928  54.92000198
C     6.17000008  10.29000092  55.59000015
H     5.74072027  10.71212578  54.68135834
H    10.81999969  10.27999973  53.23999786
H    11.73999977  11.97000027  57.91999817
H     9.57999992  11.64000034  58.43999863
H     7.16000032  10.88000107  57.87000275
H     8.32999992  10.55999947  53.72000122
H    16.60000038  10.47999954  54.10999680
H     5.68000031  10.53999996  56.53999710
H     6.15000010   9.19000053  55.59999847
S    13.50000000   8.82999992  50.61000061
C    10.80999947   8.56000042  51.29000092
C    12.11999989   8.23999977  51.56000137
C    12.51999950   7.60999966  52.77999878
C    11.56999969   7.22000027  53.70999908
C    10.19999981   7.44999981  53.43000031
C     9.15000057   6.94999981  54.25000000
C     7.82000017   7.13000011  53.93000031
C     7.46000004   7.86999989  52.77999878
C     8.45000076   8.34000015  51.93999863
C     9.82999992   8.13000011  52.21000290
C    13.96000004   7.67000008  52.97999954
C    14.60999966   8.28999996  51.88000107
C    15.98999977   8.43000031  51.73999786
C     6.05000019   7.92999983  52.22999954
H     5.86507463   7.08361197  51.56853867
H    10.36999893   9.22999954  50.54999924
H    11.89000034   6.74000025  54.62999725
H     9.39000034   6.21999979  55.01999664
H     7.00999975   6.57999992  54.40000153
H     8.22000027   8.89000034  51.03000259
H    16.48999977   9.03999996  50.98999786
H     5.38000011   7.90999985  53.09999847
H     5.91000032   8.86999989  51.69000244
S    17.32999992   6.86999989  55.13999939
C    19.98999977   7.36999989  54.45999908
C    18.65999985   7.67000008  54.27999878
C    18.17000008   8.36999989  53.13999939
C    19.11999893   8.97000027  52.32999802
C    20.51000214   8.78999996  52.55000305
C    21.52000046   9.31999969  51.69000244
C    22.86999893   9.11999989  51.86999893
C    23.31000137   8.30000019  52.94000244
C    22.36999893   7.72000027  53.75999832
C    20.96999931   7.95000029  53.61999893
C    16.76000023   8.14000034  52.87000275
C    16.14999962   7.42000008  53.93000031
C    14.78999996   7.13999987  53.96999741
C    24.79999924   8.11999989  53.11999893
H    25.15605545   8.49029922  54.08135223
H    20.29000092   6.80999994  55.34000015
H    18.78000069   9.44000053  51.40999603
H    21.22999954   9.96000004  50.86000061
H    23.51000023   9.59999943  51.12999725
H    22.65000153   7.07999992  54.59000015
H    14.32999992   6.54999971  54.75999832
H    25.38999939   8.40999985  52.23999786
H    24.96999931   7.03000021  53.20000076
