96

S    16.57999992  12.61000061  58.27999878
C    19.29999924  12.39999962  57.71999741
C    18.01000023  12.02999973  57.41000366
C    17.72999954  11.39999962  56.14999771
C    18.77000046  11.23000050  55.25000000
C    20.10000038  11.59999943  55.56999969
C    21.15999985  11.23999977  54.68999863
C    22.46000099  11.51000023  55.04000092
C    22.77000046  12.23000050  56.23000336
C    21.75000000  12.51999950  57.11000061
C    20.39999962  12.17000008  56.86000061
C    16.29999924  11.19999981  55.98999786
C    15.59000015  11.78999996  57.05999756
C    14.26000023  12.17000008  56.86999893
C    24.18000031  12.69999981  56.49000168
H    24.69266701  12.15173054  57.28036499
H    19.43000031  13.07000065  58.56999969
H    18.60000038  10.50000000  54.47000122
H    20.84000015  10.78999996  53.75999832
H    23.26999855  11.21999931  54.38000107
H    22.01999855  12.98999977  58.04999924
H    13.75000000  12.53999901  57.75000000
H    24.80999947  12.61000061  55.59000015
H    24.11999893  13.71999931  56.88000107
S    13.22000027  10.39000034  53.40000153
C    10.57000065  10.75000000  54.02000046
C    11.85999966  11.14999962  54.26000214
C    12.15999985  11.80999947  55.48999786
C    11.14999962  12.17000008  56.37000275
C     9.81000042  11.76000023  56.17000198
C     8.85999966  11.68000031  57.22000122
C     7.57999992  11.28999901  56.90000153
C     7.21000004  10.84000015  55.59999847
C     8.23999977  10.50000000  54.75000000
C     9.55999947  10.98000050  54.98000336
C    13.60000038  11.72999954  55.72000122
C    14.27000046  11.05999947  54.65999985
C    15.65000057  10.90000057  54.79000092
C     5.78999996  10.38000011  55.37000275
H     5.22863865  10.91293812  54.60256958
H    10.27999973  10.10000038  53.20000076
H    11.46000004  12.41000080  57.37999725
H     9.07999992  11.92000008  58.26000214
H     6.84999990  11.42000008  57.69000244
H     8.02999973   9.78999996  53.95000076
H    16.15999985  10.57000065  53.88999939
H     5.26999998  10.52000046  56.32999802
H     5.92999983   9.32999992  55.10000229
S    13.86000061   8.19000053  50.66999817
C    11.18000031   7.85000038  51.32999802
C    12.50000000   7.69000006  51.69000244
C    12.89000034   7.22000027  52.97999954
C    11.97000027   6.76000023  53.90999603
C    10.60999966   6.89000034  53.54999924
C     9.59000015   6.34999990  54.38000107
C     8.26000023   6.26999950  54.05000305
C     7.86000013   7.02000046  52.90999985
C     8.80999947   7.50000000  52.04000092
C    10.21999931   7.42000008  52.27000427
C    14.32999992   7.39000034  53.15999985
C    14.96999931   7.99000025  52.04000092
C    16.31999969   8.30999947  52.02999878
C     6.38999987   7.35000038  52.81000137
H     5.90675116   6.95913696  51.91456985
H    10.90000057   8.30000019  50.38000107
H    12.22000027   6.35999966  54.87999725
H     9.94999981   5.92000008  55.31000137
H     7.51999950   6.00000000  54.79999924
H     8.64000034   8.01000023  51.10000229
H    16.84000015   8.64000034  51.12999725
H     6.02999973   6.91999960  53.75000000
H     6.32999992   8.45000076  52.88000107
S    17.64999962   6.88000011  55.50000000
C    20.34000015   7.49000025  54.81999969
C    19.00000000   7.46000004  54.50000000
C    18.54999924   7.95000029  53.22999954
C    19.52000046   8.38000011  52.34000397
C    20.88999939   8.36000061  52.65999603
C    21.84999847   8.65999985  51.65000153
C    23.18000031   8.52000046  51.98999786
C    23.61000061   8.26000023  53.31999969
C    22.70999908   8.03999996  54.33000183
C    21.31999969   8.10000038  54.01000214
C    17.10000038   7.94000053  53.13000107
C    16.47999954   7.26999998  54.22000122
C    15.13000011   6.98000002  54.22999954
C    25.09000015   8.07999992  53.55999756
H    25.51748848   8.38636589  54.51472092
H    20.65000153   7.03999996  55.76000214
H    19.27999878   8.65999985  51.31999969
H    21.45000076   8.86999989  50.65999985
H    23.78999901   8.69000053  51.11000061
H    22.95999908   7.42999983  55.19000244
H    14.51000023   6.51999998  55.00000000
H    25.62000084   8.78000069  52.90000153
H    25.43999863   7.11999989  53.15999985
