96

S    16.72999954  11.82000065  58.67000198
C    19.37000084  12.05000019  57.94000244
C    18.09000015  11.75000000  57.54000092
C    17.69000053  11.44999981  56.19999695
C    18.70000076  11.36000061  55.26000214
C    20.05000114  11.61000061  55.61000061
C    21.19999886  11.52999973  54.77000427
C    22.47999954  11.90000057  55.13000107
C    22.70999908  12.46000099  56.42000198
C    21.65999985  12.51999950  57.30999756
C    20.36999893  12.05999947  56.93000031
C    16.23999977  11.46999931  56.04999924
C    15.62999916  11.82000065  57.27000427
C    14.23999977  11.84000015  57.34000397
C    24.09000015  12.92000008  56.84000015
H    24.58029175  12.14548016  57.42977524
H    19.70000076  12.35999966  58.93000031
H    18.43000031  11.13000011  54.22999954
H    21.09000015  11.13000011  53.76999664
H    23.25000000  11.84999943  54.38000107
H    21.86000061  12.84999943  58.31999969
H    13.78000069  11.92999935  58.31999969
H    24.70000076  13.12000084  55.94999695
H    24.07999992  13.89999962  57.34000397
S    12.96000004  10.93999958  53.70999908
C    10.34000015  10.46000004  54.56999969
C    11.61999893  10.85000038  54.86999893
C    12.02000046  11.38000011  56.13999939
C    11.03999996  11.47999954  57.11999893
C     9.68999958  11.13999939  56.90000153
C     8.60999966  11.38000011  57.80000305
C     7.28999996  11.13999939  57.48000336
C     7.04999971  10.34000015  56.32999802
C     8.03999996  10.19999981  55.38999939
C     9.38000011  10.59000015  55.61000061
C    13.45999908  11.56000042  56.22000122
C    14.13000011  11.26999950  55.00000000
C    15.51000023  11.09000015  54.91000366
C     5.59999990  10.01999950  56.03000259
H     5.10718822  10.65565491  55.29435349
H    10.18000031   9.94999981  53.61999893
H    11.32999992  11.89000034  58.09000015
H     8.82999992  11.95000076  58.69999695
H     6.44000006  11.46999931  58.08000183
H     7.76999998   9.88000011  54.38000107
H    15.93000031  10.65000057  54.02000046
H     5.07000017   9.92000008  56.97999954
H     5.75000000   9.02000046  55.59000015
S    16.79000092  12.76999950  52.34000397
C    19.44000053  12.74000072  51.73999786
C    18.17000008  12.48000050  51.25999832
C    17.87999916  12.09000015  49.92000198
C    18.94000053  11.96000004  49.03999710
C    20.26000023  12.02000046  49.54000092
C    21.35999870  11.94000053  48.63999939
C    22.55000114  12.53999901  48.99000168
C    22.80999947  13.02000046  50.30000305
C    21.80999947  12.97000027  51.24000168
C    20.52999878  12.46000099  50.87999725
C    16.43000031  11.92999935  49.81999969
C    15.72999954  12.23000050  51.00999832
C    14.34999943  12.30999947  51.09000397
C    24.17000008  13.57999992  50.61999893
H    24.81827164  12.87473583  51.14004517
H    19.63999939  13.28999996  52.65999603
H    18.75000000  11.82000065  47.97999954
H    21.14999962  11.71000004  47.60000229
H    23.31000137  12.72999954  48.23999786
H    22.01999855  13.48000050  52.18000031
H    13.94999981  12.57999992  52.05999756
H    24.64999962  13.78000069  49.65999985
H    24.04000092  14.51000023  51.19999695
S    13.02000046  11.36000061  47.50999832
C    10.31000042  11.25000000  48.43999863
C    11.64000034  11.54000092  48.61999893
C    12.10000038  11.97000027  49.89999771
C    11.23000050  12.05000019  50.97000122
C     9.85999966  11.77000046  50.80999756
C     8.92000008  11.54000092  51.86000061
C     7.59000015  11.26999950  51.65000153
C     7.11000013  11.19999981  50.31999969
C     7.97999954  11.35000038  49.27000046
C     9.38000011  11.52999973  49.47999954
C    13.55000019  12.13000107  49.94999695
C    14.22000027  11.71000004  48.76999664
C    15.59999943  11.59000015  48.74000168
C     5.63000011  10.90999985  50.13000107
H     5.25261116  11.13785744  49.13312531
H     9.88000011  11.03999996  47.45999908
H    11.56000042  12.20000076  52.00000000
H     9.22000027  11.79999924  52.88000107
H     6.86999989  11.00999928  52.42000198
H     7.75000000  11.05999947  48.25000000
H    16.14999962  11.30000019  47.84999847
H     5.14999962  11.56999969  50.86000061
H     5.33999968   9.88000011  50.33000183
