96

S    16.60000038  12.23999977  58.39000320
C    19.29999924  12.74000072  57.58999634
C    18.02999878  12.25999928  57.34000397
C    17.71999931  11.78999996  56.03000259
C    18.70000076  11.51000023  55.10000229
C    19.98999977  12.02999973  55.34000015
C    21.07999992  11.84999943  54.43999863
C    22.37999916  12.15000057  54.79000092
C    22.67999840  12.82999992  55.98999786
C    21.63999939  13.07000065  56.86000061
C    20.29999924  12.69000053  56.58000183
C    16.28000069  11.78999996  55.79000092
C    15.54999924  12.03999996  56.97999954
C    14.17000008  12.13999939  57.05999756
C    24.09000015  13.21000004  56.39999771
H    24.67534637  12.46760941  56.94251633
H    19.54000092  13.00000000  58.61999893
H    18.57999992  10.90999985  54.19000244
H    20.85000038  11.32999992  53.52000427
H    23.13999939  11.79999924  54.09999847
H    21.94999886  13.45999908  57.83000183
H    13.73999977  12.28000069  58.04999924
H    24.70000076  13.35000038  55.50000000
H    23.94000053  14.22999954  56.79999924
S    13.14000034  11.06999969  53.33000183
C    10.40999985  11.18999958  54.02000046
C    11.72000027  11.43000031  54.34000015
C    12.06999969  11.84000015  55.65999985
C    11.11999989  12.02999973  56.63999939
C     9.77999973  11.69000053  56.36000061
C     8.78999996  11.69999981  57.38999939
C     7.44999981  11.49000072  57.15000153
C     7.09999990  11.11999989  55.81999969
C     8.03999996  10.98000050  54.81999969
C     9.40999985  11.30000019  55.01999664
C    13.50999928  11.82000065  55.86000061
C    14.21000004  11.40999985  54.69999695
C    15.59999943  11.39000034  54.62999725
C     5.64000034  10.84000015  55.54999924
H     5.24744034  11.23969746  54.61499023
H    10.01000023  10.88000107  53.04999924
H    11.46999931  12.20000076  57.65999603
H     9.10000038  12.13000107  58.34000015
H     6.71000004  11.61000061  57.93000031
H     7.75000000  10.60999966  53.85000229
H    16.13000107  11.03999996  53.75000000
H     4.98000002  11.28000069  56.31000137
H     5.55000019   9.75000000  55.54999924
S    17.29999924  12.93000031  52.50000000
C    20.00000000  13.26000023  51.84999847
C    18.75000000  12.84000015  51.46999741
C    18.38999939  12.42000008  50.14999771
C    19.40999985  12.22000027  49.22999954
C    20.72000122  12.61000061  49.58000183
C    21.75000000  12.51999950  48.59000397
C    23.05000114  12.71000004  48.99000168
C    23.32999992  13.23999977  50.27999878
C    22.37999916  13.27000046  51.26999664
C    21.04000092  12.92000008  50.93999863
C    16.97000122  12.10999966  49.98000336
C    16.25000000  12.44999981  51.14999771
C    14.85999966  12.50000000  51.16000366
C    24.71999931  13.73000050  50.61000061
H    25.18283463  13.03218746  51.30781174
H    20.17000008  13.68999958  52.83000183
H    19.09000015  11.77999973  48.29000092
H    21.52000046  12.05999947  47.63000107
H    23.85999870  12.65999985  48.26000214
H    22.46999931  13.73000050  52.25000000
H    14.37000084  12.77999973  52.09000015
H    25.23999977  13.81000042  49.64000320
H    24.65999985  14.72000027  51.06999969
S    13.80000019  11.23999977  47.55000305
C    11.09000015  11.28000069  48.15999985
C    12.36999989  11.65999985  48.50999832
C    12.69000053  12.15999985  49.80999756
C    11.64999962  12.38000011  50.68999863
C    10.29999924  12.10000038  50.34999847
C     9.15999985  12.32999992  51.17000198
C     7.86999989  12.05000019  50.79999924
C     7.67000008  11.43000031  49.54000092
C     8.69000053  11.21999931  48.64999771
C    10.01000023  11.57999992  49.03999710
C    14.14000034  12.17000008  50.00999832
C    14.86999989  11.73999977  48.87000275
C    16.26000023  11.64999962  48.87000275
C     6.24000025  11.05000019  49.20000076
H     5.83330441  11.62080002  48.36520386
H    10.95000076  10.82999992  47.18000031
H    11.85999966  12.74000072  51.69000244
H     9.19000053  12.84999943  52.11999893
H     7.09000015  12.28000069  51.52000046
H     8.56999969  10.72000027  47.69000244
H    16.75000000  11.49000072  47.91999817
H     5.59999990  11.17000008  50.07999802
H     6.34999990   9.98000050  48.99000168
