96

S    16.79999924  12.43000031  58.22999954
C    19.54000092  12.57999992  57.56999969
C    18.23999977  12.28000069  57.21000290
C    17.94000053  11.85999966  55.87999725
C    18.93000031  11.77999973  54.92000198
C    20.28000069  12.02000046  55.27999878
C    21.38000107  11.69999981  54.43000031
C    22.70000076  11.90000057  54.75000000
C    22.96999931  12.44999981  56.03000259
C    21.94999886  12.65999985  56.91999817
C    20.58000183  12.48000050  56.60999680
C    16.48999977  11.72999954  55.77000046
C    15.69000053  12.05000019  56.88999939
C    14.29999924  12.09000015  56.93999863
C    24.40000153  12.65999985  56.47999573
H    24.72684097  11.99921417  57.28289032
H    19.79999924  12.86000061  58.59000397
H    18.65999985  11.40999985  53.93000031
H    21.15999985  11.19999981  53.48999786
H    23.45000076  11.39999962  54.15000153
H    22.23999977  12.97999954  57.91999817
H    13.83999920  12.55000019  57.81000137
H    25.09000015  12.72999954  55.63000107
H    24.33000183  13.66000080  56.93000031
S    13.40000057  10.80999947  53.27000046
C    10.65999985  10.85000038  53.81999969
C    11.95000076  11.03999996  54.27000046
C    12.20999908  11.57999992  55.56999969
C    11.11999989  11.84000015  56.38000107
C     9.80000019  11.49000072  56.02000427
C     8.75000000  11.64999962  56.97999954
C     7.44999981  11.39000034  56.59999847
C     7.20000029  10.77000046  55.34999847
C     8.19999981  10.65999985  54.40999985
C     9.55000019  11.00000000  54.68999863
C    13.63999939  11.77000046  55.75000000
C    14.40999985  11.36999989  54.61999893
C    15.78999996  11.31000042  54.62999725
C     5.78000021  10.34999943  55.07999802
H     5.22634411  11.03142262  54.43406677
H    10.55999947  10.55999947  52.77999878
H    11.26000023  12.31999969  57.35000229
H     9.06999969  12.23999977  57.83000183
H     6.69000053  11.65999985  57.32999802
H     7.99000025  10.15999985  53.47000122
H    16.28000069  10.95999908  53.72000122
H     5.26000023  10.15999985  56.03000259
H     5.73000002   9.34000015  54.65999985
S    16.97999954  12.81999969  52.23999786
C    19.64999962  12.89000034  51.62000275
C    18.38999939  12.51999950  51.20999908
C    18.09000015  11.95000076  49.93000031
C    19.10000038  11.65999985  49.03999710
C    20.40999985  11.98999977  49.45999908
C    21.50000000  11.54000092  48.66000366
C    22.79000092  11.89000034  48.96999741
C    23.09000015  12.61000061  50.15999603
C    22.06000137  13.02000046  50.97000122
C    20.72000122  12.58999920  50.72999954
C    16.64999962  12.05000019  49.72999954
C    15.92000008  12.55000019  50.84000015
C    14.53999996  12.65999985  50.77000046
C    24.48999786  13.12999916  50.44000244
H    24.95137024  12.71121693  51.33435059
H    19.88000107  13.53999996  52.45999908
H    18.85000038  11.10999966  48.13000107
H    21.30000114  11.10000038  47.69000244
H    23.48999977  11.78999996  48.13999939
H    22.27000046  13.59000015  51.86000061
H    13.96999931  12.96000004  51.65000153
H    25.12000084  12.90999985  49.58000183
H    24.40000153  14.22000027  50.50000000
S    13.56999969  11.03000069  47.28000259
C    10.80000019  11.02000046  47.95000076
C    12.10999966  11.32999992  48.22999954
C    12.41000080  12.01000023  49.45999908
C    11.44000053  12.27000046  50.40999985
C    10.11000061  11.84000015  50.20000076
C     9.02999973  11.98999977  51.11999893
C     7.73999977  11.63000011  50.79999924
C     7.42999983  11.11999989  49.51000214
C     8.46000004  10.84000015  48.63999939
C     9.80000019  11.21999931  48.93000031
C    13.85000038  12.11999989  49.68000031
C    14.60000038  11.69999981  48.55999756
C    15.98999977  11.63000011  48.56999969
C     5.98999977  10.84000015  49.13000107
H     5.59901285  11.41581821  48.29115295
H    10.52000046  10.54999924  47.01000214
H    11.75000000  12.71999931  51.35000229
H     9.21000004  12.46999931  52.08000183
H     7.03999996  11.65999985  51.63000107
H     8.32999992  10.38000011  47.67000198
H    16.53000069  11.18000031  47.74000168
H     5.44000053  11.06999969  50.04000092
H     5.84000015   9.77000046  48.94000244
