96

S    16.84000015  12.25999928  58.56999969
C    19.56999969  12.30999947  57.95000076
C    18.27999878  11.97999954  57.57999802
C    17.97000122  11.57999992  56.24000168
C    19.03000069  11.40999985  55.35999680
C    20.38000107  11.64999962  55.72000122
C    21.44000053  11.69999981  54.77000427
C    22.73999977  11.97999954  55.13000107
C    23.02999878  12.36999989  56.45999908
C    21.97999954  12.56999969  57.32999802
C    20.65000153  12.15000057  57.04000092
C    16.54000092  11.36999989  56.09000397
C    15.78999996  11.82999992  57.19999695
C    14.40000057  11.84999943  57.28000259
C    24.44999886  12.71000004  56.84999847
H    24.83989334  11.97274590  57.55180740
H    19.68000031  12.68000031  58.95999908
H    18.86999893  11.31999969  54.29000092
H    21.14000130  11.44999981  53.75000000
H    23.57000160  11.90999985  54.43999863
H    22.13000107  12.88000011  58.36000061
H    13.90999985  11.98999977  58.23999786
H    25.07999802  12.74000072  55.96000290
H    24.51000023  13.71000099  57.30999756
S    13.36999989  10.15999985  53.81000137
C    10.62000084  10.11999989  54.41999817
C    11.90000057  10.50000000  54.73999786
C    12.28999996  11.23000050  55.91999817
C    11.26999950  11.44000053  56.83000183
C     9.92000008  11.06999969  56.59999847
C     8.86999989  11.16000080  57.55000305
C     7.59999990  10.67000008  57.35000229
C     7.30000019  10.05000019  56.10000229
C     8.30000019   9.85999966  55.18000031
C     9.61000061  10.39000034  55.37000275
C    13.71000099  11.47999954  56.12999725
C    14.40999985  10.97000027  55.00000000
C    15.80000019  10.90999985  54.99000168
C     5.88999987   9.59999943  55.79999924
H     5.46251202  10.29823017  55.08039474
H    10.36999893   9.42000008  53.62999725
H    11.59000015  11.59000015  57.84999847
H     9.13999939  11.69000053  58.46000290
H     6.89000034  10.86999989  58.13999939
H     8.15999985   9.34000015  54.23999786
H    16.28999901  10.67000008  54.05000305
H     5.23999977   9.39999962  56.65999985
H     5.98000002   8.64000034  55.27000046
S    17.11000061  12.58999920  52.62000275
C    19.76000023  12.71999931  51.77000046
C    18.47999954  12.28000069  51.55000305
C    18.15999985  11.64000034  50.31000137
C    19.13999939  11.54000092  49.34000015
C    20.45000076  12.05000019  49.54999924
C    21.52000046  11.89000034  48.62999725
C    22.84000015  12.13000107  48.88999939
C    23.19000053  12.68000031  50.14999771
C    22.15999985  13.02000046  51.00000000
C    20.79999924  12.65999985  50.79999924
C    16.72999954  11.39999962  50.20999908
C    16.05999947  11.92999935  51.35000229
C    14.68000031  11.97999954  51.39999771
C    24.65999985  12.96000004  50.38000107
H    25.05127907  12.35529518  51.19812775
H    20.00000000  13.04999924  52.77999878
H    18.89000130  11.02000046  48.41999817
H    21.24000168  11.46999931  47.65999603
H    23.61999893  11.90000057  48.16999817
H    22.46000099  13.53000069  51.90999985
H    14.17000008  12.36999989  52.28000259
H    25.29999924  12.76000023  49.51000214
H    24.93000031  14.00000000  50.59000015
S    13.48000050  10.72999954  47.85999680
C    10.80000019  10.46000004  48.68000031
C    12.10999966  10.77000046  48.97999573
C    12.48000050  11.36000061  50.22999573
C    11.44000053  11.40999985  51.14999771
C    10.06999969  11.18000031  50.86999893
C     9.00000000  11.39999962  51.77999878
C     7.71000004  11.21000099  51.33999634
C     7.39000034  10.65999985  50.06999969
C     8.38999939  10.29999924  49.20000076
C     9.72000027  10.62999916  49.59000015
C    13.92000008  11.51000023  50.31999969
C    14.63000107  11.18999958  49.13000107
C    16.01000023  11.05999947  49.06000137
C     5.97000027  10.27999973  49.71000290
H     5.55182981  10.78322124  48.83822250
H    10.55999947  10.08999920  47.69000244
H    11.61999893  11.73999977  52.16999817
H     9.17000008  11.80999947  52.77000046
H     6.80999994  11.36000061  51.93999863
H     8.19000053   9.89999962  48.20999908
H    16.46000099  11.00000000  48.06999969
H     5.31000042  10.34999943  50.58000183
H     6.03999996   9.22999954  49.38000107
