96

S    16.45000076  11.79999924  58.30999756
C    19.11000061  12.23999977  57.50000000
C    17.85000038  11.77999973  57.22000122
C    17.48999977  11.44999981  55.86999893
C    18.45999908  11.46000004  54.87999725
C    19.76000023  11.92000008  55.19000244
C    20.86000061  11.73999977  54.29000092
C    22.15999985  12.03999996  54.58000183
C    22.49000168  12.44999981  55.90000153
C    21.50000000  12.51000023  56.84999847
C    20.13000107  12.35000038  56.51000214
C    16.04999924  11.36999989  55.68000031
C    15.38000011  11.59000015  56.91999817
C    13.99000072  11.56999969  57.00000000
C    23.90000153  12.86000061  56.29000092
H    24.29957962  12.21782112  57.07488632
H    19.47000122  12.64000034  58.43999863
H    18.20000076  10.98999977  53.93000031
H    20.59999847  11.30000019  53.33000183
H    23.00000000  11.90000057  53.89999771
H    21.73000145  12.71999931  57.88999939
H    13.53000069  11.56999969  57.97999954
H    24.50000000  12.90999985  55.38000107
H    23.72999954  13.88000011  56.65999985
S    12.75000000  10.93000031  53.30999756
C    10.10000038  10.57999992  54.06999969
C    11.36999989  10.98999977  54.40999985
C    11.75000000  11.28000069  55.76000214
C    10.80000019  11.21999931  56.76000214
C     9.46000004  10.90999985  56.42000198
C     8.47999954  10.92000008  57.45999908
C     7.16000032  10.88999939  57.08000183
C     6.76999998  10.67000008  55.73999786
C     7.69999981  10.52999973  54.73999786
C     9.07999992  10.65000057  55.06000137
C    13.20000076  11.44000053  55.84999847
C    13.89000034  11.21000099  54.64000320
C    15.27999973  11.23999977  54.52000046
C     5.28999996  10.47000027  55.45000076
H     5.07668877  10.54110432  54.38344574
H     9.94000053  10.34000015  53.02000046
H    10.93999958  11.39000034  57.81999969
H     8.78000069  11.28999901  58.43000031
H     6.38999987  11.03000069  57.84000015
H     7.42999983  10.31999969  53.69999695
H    15.90000057  11.28000069  53.62999725
H     4.69000006  11.17000008  56.04000092
H     5.05000019   9.47000027  55.80999756
S    13.30000019   8.71000004  50.76000214
C    10.65999985   8.06999969  51.58000183
C    12.02000046   8.02999973  51.79000092
C    12.58999920   7.36000013  52.93000031
C    11.76000023   6.71999979  53.81999969
C    10.38000011   6.54999971  53.53000259
C     9.47000027   5.92999983  54.43000031
C     8.11999989   5.92999983  54.20999908
C     7.59000015   6.56000042  53.04999924
C     8.43000031   7.26000023  52.21000290
C     9.81999969   7.32999992  52.45999908
C    14.04000092   7.49000025  53.02000046
C    14.53999996   8.27999973  51.95000076
C    15.88000107   8.63000011  51.81000137
C     6.10000038   6.63999987  52.81999969
H     5.82237577   6.85355711  51.78780746
H    10.21999931   8.53999996  50.70999908
H    12.11999989   6.34000015  54.78000259
H    10.00000000   5.56999969  55.31000137
H     7.40999985   5.56999969  54.94999695
H     7.96999979   7.88000011  51.44000244
H    16.28000069   9.15000057  50.93999863
H     5.59999990   5.73000002  53.18999863
H     5.75999975   7.44000006  53.48999786
S    17.45000076   7.21000004  55.15999603
C    20.09000015   7.78999996  54.40999985
C    18.75000000   7.83999968  54.13000107
C    18.20000076   8.47999954  52.97999954
C    19.09000015   9.03999996  52.08000183
C    20.48999977   9.00000000  52.30999756
C    21.45000076   9.35000038  51.31000137
C    22.79999924   9.28999996  51.52999878
C    23.26000023   8.84000015  52.80000305
C    22.40999985   8.28999996  53.73000336
C    21.00000000   8.42000008  53.52000427
C    16.77000046   8.25000000  52.81999969
C    16.23999977   7.48000050  53.88999939
C    14.91000080   7.11999989  54.05000305
C    24.69000053   9.19000053  53.15000153
H    25.09731674   8.49684906  53.88602829
H    20.32999992   7.14999962  55.25000000
H    18.73999977   9.50000000  51.16000366
H    21.02999878   9.65999985  50.35999680
H    23.47999954   9.82999992  50.86999893
H    22.77000046   7.90999985  54.66999817
H    14.57999992   6.80000019  55.02999878
H    24.79000092  10.21999931  53.50999832
H    25.34000015   9.02000046  52.28000259
