96

S    16.76000023  12.10000038  58.48999786
C    19.48999977  12.13999939  57.90999985
C    18.20999908  11.87999916  57.49000168
C    17.85000038  11.43000031  56.18000031
C    18.86999893  11.17000008  55.27999878
C    20.19000053  11.51000023  55.63999939
C    21.28999901  11.42000008  54.73999786
C    22.55000114  11.79999924  55.13000107
C    22.89999962  12.18999958  56.45000076
C    21.86000061  12.35000038  57.32999802
C    20.52999878  12.01000023  56.95000076
C    16.39999962  11.47999954  55.97999954
C    15.65999985  11.84999943  57.12999725
C    14.27000046  11.79999924  57.16999817
C    24.25000000  12.77999973  56.76000214
H    24.90397453  12.11891747  57.32867432
H    19.62000084  12.58999920  58.88999939
H    18.64999962  11.00999928  54.22999954
H    21.14999962  11.00999928  53.74000168
H    23.32999992  11.80999947  54.36999893
H    22.01000023  12.64000034  58.36999893
H    13.76000023  12.25000000  58.02000046
H    24.84999847  12.97000027  55.86000061
H    24.01000023  13.71000099  57.29000092
S    13.20000076  10.51000023  53.54999924
C    10.51000023  10.36000061  54.23999786
C    11.80999947  10.59999943  54.64000320
C    12.15999985  11.09000015  55.93999863
C    11.10999966  11.26999950  56.83000183
C     9.77999973  10.90000057  56.52000046
C     8.73999977  10.98999977  57.49000168
C     7.42999983  10.72000027  57.15999985
C     7.09000015  10.34999943  55.83000183
C     8.09000015  10.24000072  54.88999939
C     9.47000027  10.39000034  55.20999908
C    13.59000015  11.31999969  56.04000092
C    14.29999924  10.98999977  54.85000229
C    15.69000053  11.05000019  54.86000061
C     5.61999989  10.21000004  55.52000046
H     5.34235859  10.70121193  54.58740997
H    10.22999954  10.03000069  53.25000000
H    11.25000000  11.61000061  57.84999847
H     8.97000027  11.38000011  58.47999954
H     6.63000011  10.98000050  57.84000015
H     7.86999989  10.10000038  53.83999634
H    16.26000023  10.67000008  54.02000046
H     4.92000008  10.51000023  56.31000137
H     5.42000008   9.13000011  55.40999985
S    17.31999969  12.63000011  52.54000092
C    20.03999901  13.02000046  51.90999985
C    18.79999924  12.53999901  51.56000137
C    18.53000069  12.02000046  50.25000000
C    19.57999992  11.97000027  49.34999847
C    20.92000008  12.25000000  49.72000122
C    22.04000092  12.02999973  48.87000275
C    23.28000069  12.46999931  49.26000214
C    23.47999954  13.10999966  50.51000214
C    22.43999863  13.23999977  51.38999939
C    21.12999916  12.84000015  51.00999832
C    17.12000084  11.77000046  50.01999664
C    16.34000015  12.23000050  51.11000061
C    14.96999931  12.41000080  51.09000397
C    24.90999985  13.48000050  50.83000183
H    25.36462021  12.70572662  51.44799805
H    20.20999908  13.50000000  52.87000275
H    19.42000008  11.46999931  48.40000153
H    21.90999985  11.46000004  47.95000076
H    24.09000015  12.34000015  48.54999924
H    22.77000046  13.71999931  52.30999756
H    14.45000076  12.64999962  52.02000046
H    25.39999962  13.63999939  49.86000061
H    24.92000198  14.47000027  51.30000305
S    14.01000023  11.03000069  47.45999908
C    11.26999950  11.09000015  48.04999924
C    12.56000042  11.44000053  48.40000153
C    12.89999962  11.96000004  49.68999863
C    11.87999916  12.01000023  50.63000107
C    10.52999973  11.82000065  50.27000046
C     9.47000027  11.84999943  51.22000122
C     8.15999985  11.64000034  50.84999847
C     7.83999968  11.18000031  49.54000092
C     8.86999989  10.93999958  48.66000366
C    10.21000004  11.33999920  48.95000076
C    14.32999992  12.10000038  49.87999725
C    15.06000042  11.61000061  48.76999664
C    16.45000076  11.61000061  48.80000305
C     6.48000002  10.65000057  49.15000153
H     5.86929989  11.34591389  48.57480621
H    11.00999928  10.72999954  47.05999756
H    11.98999977  12.23999977  51.69000244
H     9.70000076  12.07999992  52.25000000
H     7.36999989  11.72000027  51.59000015
H     8.73000050  10.47999954  47.69000244
H    17.10000038  11.51000023  47.93000031
H     5.97000027  10.27999973  50.05000305
H     6.67000008   9.78999996  48.50000000
