96

S    16.84999847  12.28000069  58.62999725
C    19.54000092  12.30000019  57.90000153
C    18.26000023  11.89000034  57.63000107
C    17.80999947  11.56999969  56.31000137
C    18.81999969  11.46000004  55.35999680
C    20.17999840  11.73999977  55.59999847
C    21.18999863  11.43000031  54.64000320
C    22.49000168  11.75000000  54.94999695
C    22.84000015  12.55000019  56.06999969
C    21.87999916  12.74000072  57.02999878
C    20.52999878  12.28000069  56.88999939
C    16.36999893  11.54000092  56.11000061
C    15.72000027  11.92999935  57.30999756
C    14.34000015  11.95000076  57.45999908
C    24.30000114  12.77999973  56.38999939
H    24.59136391  12.04803467  57.14328384
H    19.71999931  12.79999924  58.85000229
H    18.71999931  10.95000076  54.40999985
H    20.88999939  10.88000107  53.75000000
H    23.18000031  11.35000038  54.20999908
H    22.22999954  13.10999966  57.98999786
H    13.96999931  12.05999947  58.47000122
H    24.89999962  12.71000004  55.47999954
H    24.51000023  13.81000042  56.72000122
S    13.03999996  10.65000057  53.96999741
C    10.34999943  10.59000015  54.72000122
C    11.64000034  10.95000076  55.02999878
C    12.09000015  11.50000000  56.26999664
C    11.05000019  11.71000004  57.15999985
C     9.68999958  11.43000031  56.88999939
C     8.69000053  11.65999985  57.87000275
C     7.40999985  11.23000050  57.64999771
C     7.00000000  10.67000008  56.40999603
C     7.95000029  10.43000031  55.44000244
C     9.31999969  10.73999977  55.68000031
C    13.53999996  11.63000011  56.35000229
C    14.21000004  11.28999901  55.14999771
C    15.59000015  11.23000050  54.99000168
C     5.56999969  10.21000004  56.22000122
H     5.22851372  10.71511555  55.31648254
H    10.15999985  10.24000072  53.70999908
H    11.19999981  11.97999954  58.20000076
H     9.00000000  12.02999973  58.85000229
H     6.63000011  11.28000069  58.40999985
H     7.62000036  10.14000034  54.45000076
H    16.04999924  10.71000004  54.15999985
H     4.92000008  10.54999924  57.04000092
H     5.51999998   9.11999989  56.10000229
S    17.46999931  12.69000053  52.70000076
C    20.10999870  13.07000065  51.84000015
C    18.82999992  12.64000034  51.56000137
C    18.45000076  11.92999935  50.38000107
C    19.38999939  11.92000008  49.36000061
C    20.73999786  12.28000069  49.62999725
C    21.75000000  12.23999977  48.62999725
C    23.05000114  12.63000011  48.80000305
C    23.36000061  13.27000046  50.02999878
C    22.46999931  13.27000046  51.09000397
C    21.14000130  12.81000042  50.90000153
C    17.02999878  11.61000061  50.38999939
C    16.31000137  12.02999973  51.52999878
C    14.93000031  12.23999977  51.52999878
C    24.77000046  13.59000015  50.45000076
H    25.17537880  12.84325027  51.13274002
H    20.36999893  13.57999992  52.77000046
H    19.10000038  11.46999931  48.41999817
H    21.31000137  11.76000023  47.75000000
H    23.90999985  12.25999928  48.26000214
H    22.69000053  13.66000080  52.08000183
H    14.42999935  12.67000008  52.38999939
H    25.45000076  13.60000038  49.59000015
H    24.87999916  14.55999947  50.94999695
S    13.86999989  11.40999985  47.77999878
C    11.18000031  11.17000008  48.36999893
C    12.43000031  11.56000042  48.81000137
C    12.79999924  11.87999916  50.14999771
C    11.75000000  12.00000000  51.04999924
C    10.43000031  11.63000011  50.68000031
C     9.34000015  11.84000015  51.56999969
C     8.09000015  11.32999992  51.30000305
C     7.77999973  10.85999966  50.00000000
C     8.80999947  10.75000000  49.09999847
C    10.14999962  11.18999958  49.34000015
C    14.23999977  11.89000034  50.35999680
C    14.94999981  11.59999943  49.16999817
C    16.31999969  11.36999989  49.20999908
C     6.42000008  10.29999924  49.64000320
H     5.91498184  10.87614727  48.86468887
H    10.98999977  10.65999985  47.43999863
H    11.97000027  12.42000008  52.02999878
H     9.59000015  12.10999966  52.58999634
H     7.31999969  11.44000053  52.05999756
H     8.55000019  10.40999985  48.09999847
H    16.95000076  11.19999981  48.34000015
H     5.89999962  10.26000023  50.59999847
H     6.51999998   9.23999977  49.38999939
