96

S    17.12000084  12.39999962  58.54999924
C    19.76000023  12.51000023  57.78999710
C    18.48999977  12.09000015  57.48000336
C    18.04999924  11.61000061  56.19999695
C    19.02000046  11.57999992  55.20999908
C    20.34000015  12.02999973  55.45999908
C    21.32999802  12.00000000  54.43999863
C    22.59000015  12.51000023  54.68000031
C    22.95000076  13.12000084  55.90999985
C    21.98999786  13.17000008  56.88999939
C    20.69999886  12.58999920  56.73999786
C    16.60000038  11.57999992  56.18000031
C    15.88999939  11.97999954  57.34000397
C    14.51000023  12.13000107  57.38999939
C    24.38999939  13.50000000  56.18999863
H    24.76007843  13.01605129  57.09384537
H    20.02000046  12.96000004  58.75000000
H    18.81999969  11.21999931  54.20999908
H    21.22999954  11.44000053  53.50999832
H    23.29999924  12.39999962  53.86000061
H    22.18000031  13.55000019  57.88999939
H    14.04000092  12.48999977  58.29999924
H    25.07999802  13.40000057  55.34999847
H    24.40999985  14.55999947  56.47999573
S    13.35000038  11.31000042  53.68000031
C    10.65000057  11.32999992  54.33000183
C    11.92999935  11.67000008  54.69999695
C    12.32999992  11.90000057  56.04999924
C    11.32999992  11.90999985  57.01000214
C     9.96000004  11.77000046  56.69000244
C     8.89999962  11.89000034  57.63000107
C     7.63999987  11.44999981  57.30999756
C     7.37999964  10.95000076  56.00999832
C     8.32999992  10.98999977  55.00999832
C     9.64999962  11.40999985  55.33000183
C    13.76999950  11.94000053  56.20999908
C    14.46000004  11.51000023  55.05000305
C    15.82999992  11.26000023  55.06000137
C     5.98999977  10.44999981  55.70000076
H     5.38393927  11.19153309  55.17950058
H    10.34000015  10.85000038  53.40999985
H    11.54999924  12.22000027  58.02999878
H     9.07999992  12.18000031  58.66000366
H     6.85999966  11.56000042  58.06000137
H     8.01999950  10.92000008  53.96999741
H    16.32999992  11.05999947  54.10999680
H     5.46999979  10.22999954  56.65000153
H     6.05000019   9.56999969  55.04000092
S    17.30999947  12.84000015  52.31999969
C    19.96000099  12.86999893  51.51000214
C    18.65999985  12.51999950  51.20999908
C    18.22000122  12.06999969  49.92000198
C    19.19000053  11.92999935  48.95000076
C    20.56999969  12.09000015  49.20999908
C    21.60000038  11.78999996  48.26000214
C    22.88999939  12.11999989  48.59000397
C    23.26999855  12.60000038  49.86999893
C    22.29000092  12.89000034  50.79000092
C    20.92000008  12.64000034  50.48999786
C    16.77000046  12.13999939  49.82999802
C    16.13000107  12.53000069  51.03000259
C    14.77000046  12.81000042  51.04000092
C    24.69000053  13.09999943  50.00999832
H    25.19537354  12.58750820  50.82856369
H    20.23999977  13.34000015  52.43999863
H    18.95000076  11.59000015  47.94000244
H    21.28999901  11.43000031  47.29000092
H    23.64999962  12.05000019  47.81000137
H    22.42000198  13.43000031  51.72000122
H    14.27999973  13.17000008  51.93999863
H    25.22999954  12.97999954  49.06000137
H    24.68000031  14.18000031  50.24000168
S    13.45999908  11.68000031  47.44999695
C    10.77000046  11.75000000  48.13999939
C    12.05999947  12.09000015  48.46000290
C    12.50000000  12.51000023  49.75999832
C    11.54999924  12.56999969  50.77000046
C    10.19999981  12.30000019  50.44000244
C     9.11999989  12.38000011  51.36000061
C     7.90000010  11.77000046  51.17000198
C     7.57999992  11.18999958  49.92000198
C     8.50000000  11.23999977  48.89999771
C     9.81000042  11.69999981  49.19000244
C    13.94000053  12.57999992  49.93000031
C    14.57999992  12.05999947  48.76999664
C    15.95000076  11.87999916  48.72000122
C     6.21999979  10.62000084  49.56999969
H     5.68701649  11.25957966  48.86645889
H    10.52999973  11.39999962  47.14000320
H    11.84000015  12.89999962  51.76000214
H     9.31999969  12.61999989  52.39999771
H     7.25000000  11.72999954  52.02999878
H     8.22000027  10.93000031  47.90000153
H    16.44000053  11.52999973  47.81999969
H     5.60999966  10.54999924  50.47999954
H     6.34000015   9.63000011  49.10999680
