96

S    16.98999977  12.20000076  58.52000427
C    19.69000053  12.44999981  57.81999969
C    18.39999962  12.11999989  57.44999695
C    18.09999847  11.64999962  56.12999725
C    19.10000038  11.54999924  55.17000198
C    20.38999939  11.97000027  55.56999969
C    21.47000122  11.82000065  54.65999985
C    22.76000023  12.13000107  55.02999878
C    23.11000061  12.58999920  56.31999969
C    22.10000038  12.71000004  57.25000000
C    20.76000023  12.42000008  56.88999939
C    16.67000008  11.42000008  56.00000000
C    15.93999958  11.72000027  57.16999817
C    14.55999947  11.89000034  57.15000153
C    24.56000137  12.86000061  56.65999985
H    24.93105888  12.16069317  57.40925598
H    19.96000099  12.79000092  58.81000137
H    18.93000031  11.00999928  54.23999786
H    21.19999886  11.63000011  53.61999893
H    23.54999924  12.09000015  54.27999878
H    22.34000015  12.90999985  58.29000092
H    14.11999893  12.17000008  58.11000061
H    25.12000084  12.88000011  55.72000122
H    24.56000137  13.90999985  57.00000000
S    13.61999989  10.92000008  53.40000153
C    10.85999966  10.81999969  53.97999573
C    12.13999939  11.14999962  54.34999847
C    12.46000099  11.63000011  55.65999985
C    11.46000004  11.77999973  56.60999680
C    10.11999989  11.51000023  56.25999832
C     9.07999992  11.64000034  57.22000122
C     7.82000017  11.18999958  56.90999985
C     7.50000000  10.55999947  55.68000031
C     8.51000023  10.52000046  54.73999786
C     9.82999992  11.00000000  54.93999863
C    13.89000034  11.68000031  55.93999863
C    14.63999939  11.21999931  54.82999802
C    16.00000000  10.95999908  54.86000061
C     6.07999992  10.21000004  55.31999969
H     5.64890957  10.71882820  54.45781708
H    10.57999992  10.39999962  53.02000046
H    11.64999962  12.10999966  57.63000107
H     9.19999981  11.90999985  58.27000046
H     7.09000015  11.33999920  57.70000076
H     8.31999969  10.06000042  53.76999664
H    16.67000008  10.52999973  54.10999680
H     5.45000029  10.14000034  56.20999908
H     6.09000015   9.17000008  54.97000122
S    13.42000008   8.82999992  50.34999847
C    10.67999935   8.56999969  51.03000259
C    12.01000023   8.45000076  51.36000061
C    12.43999958   7.82999992  52.57999802
C    11.51000023   7.48000050  53.54000092
C    10.14000034   7.62000036  53.20999908
C     9.17000008   7.13000011  54.13000107
C     7.86999989   6.90999985  53.74000168
C     7.39000034   7.39000034  52.49000168
C     8.30000019   8.00000000  51.65000153
C     9.70000076   8.06999969  51.91999817
C    13.89000034   7.67000008  52.63000107
C    14.59000015   8.19999981  51.52000046
C    15.90000057   8.65999985  51.63999939
C     6.00000000   7.04999971  52.02999878
H     5.67343569   7.56824303  51.12839890
H    10.44000053   8.97000027  50.05000305
H    11.89000034   7.03000021  54.45999908
H     9.46000004   6.69000053  55.07999802
H     7.22000027   6.40999985  54.45000076
H     8.05000019   8.50000000  50.72000122
H    16.36000061   9.22000027  50.83000183
H     5.88000011   5.96000004  51.97000122
H     5.29999971   7.27999973  52.84999847
S    16.97999954   7.49000025  55.21999741
C    19.70999908   8.06999969  54.80999756
C    18.39999962   8.14999962  54.38999939
C    18.04000092   8.46000004  53.04000092
C    19.05999947   8.80000019  52.16999817
C    20.42000008   8.73999977  52.56000137
C    21.45000076   8.92000008  51.59000015
C    22.76000023   8.65999985  51.90999985
C    23.15000153   8.51000023  53.27000046
C    22.14999962   8.34000015  54.20000076
C    20.76000023   8.42000008  53.92000198
C    16.61000061   8.32999992  52.80000305
C    15.88000107   7.75000000  53.86000061
C    14.55999947   7.30000019  53.80000305
C    24.57999992   8.10999966  53.53000259
H    25.05424118   8.56300735  54.40062332
H    19.88999939   7.44999981  55.68000031
H    18.90999985   9.15999985  51.14999771
H    21.19999886   9.39000034  50.63999939
H    23.46999931   8.69000053  51.10000229
H    22.46999931   7.96000004  55.17000198
H    14.00000000   7.13000011  54.72000122
H    25.13999939   8.36000061  52.62000275
H    24.79000092   7.03999996  53.54999924
