96

S    17.18000031  12.30999947  58.40000153
C    19.84000015  12.43000031  57.62000275
C    18.54999924  12.07999992  57.29999924
C    18.13999939  11.78999996  55.94999695
C    19.07999992  11.68000031  54.93999863
C    20.43999863  11.94000053  55.25000000
C    21.53000069  11.69000053  54.36999893
C    22.85000038  11.97000027  54.64000320
C    23.13999939  12.51999950  55.91999817
C    22.14999962  12.65999985  56.86000061
C    20.79000092  12.38000011  56.56999969
C    16.70999908  11.54000092  55.93999863
C    16.02000046  11.84999943  57.14000320
C    14.63999939  11.97000027  57.25000000
C    24.54000092  12.96000004  56.29000092
H    24.97516251  12.38929653  57.11038589
H    20.13999939  12.71000004  58.62999725
H    18.85000038  11.05999947  54.08000183
H    21.25999832  11.19999981  53.43999863
H    23.62999916  11.94000053  53.88999939
H    22.43000031  13.03999996  57.84000015
H    14.14999962  12.27000046  58.16999817
H    25.26000023  12.96000004  55.45999908
H    24.56000137  13.99000072  56.65999985
S    13.43999958  10.97000027  53.61000061
C    10.75000000  10.69000053  54.38000107
C    12.02999973  11.10999966  54.68000031
C    12.43999958  11.46000004  56.00000000
C    11.40999985  11.69999981  56.88999939
C    10.06000042  11.43000031  56.58000183
C     9.00000000  11.57999992  57.51999664
C     7.69000006  11.35000038  57.18000031
C     7.31999969  10.77999973  55.93999863
C     8.34000015  10.52000046  55.05000305
C     9.68999958  10.88000107  55.30000305
C    13.88000011  11.63000011  56.11999893
C    14.57999992  11.25000000  54.93999863
C    15.95000076  11.10000038  54.84000397
C     5.93999958  10.19999981  55.70999908
H     5.43544197  10.64059925  54.85012054
H    10.53999996  10.08999920  53.50000000
H    11.54000092  12.15999985  57.87000275
H     9.34000015  11.84999943  58.52000427
H     7.00000000  11.39999962  58.02000046
H     8.06999969  10.14000034  54.06999969
H    16.39000130  10.73999977  53.92000198
H     5.33999968  10.27999973  56.63000107
H     6.05999994   9.13000011  55.52000046
S    17.19000053  12.65999985  52.31999969
C    19.86999893  12.75000000  51.70999908
C    18.63000107  12.27000046  51.35000229
C    18.26000023  11.89000034  50.01999664
C    19.29000092  11.87999916  49.09999847
C    20.62999916  12.20000076  49.43000031
C    21.73000145  11.97999954  48.55999756
C    23.02000046  12.35999966  48.87000275
C    23.25000000  12.97000027  50.13000107
C    22.21999931  13.15999985  51.03000259
C    20.89999962  12.71999931  50.75000000
C    16.81999969  11.84000015  49.80999756
C    16.11999893  12.34000015  50.93999863
C    14.75000000  12.55000019  50.93999863
C    24.68000031  13.35000038  50.40000153
H    25.19066620  12.67620373  51.08798218
H    20.15999985  13.15999985  52.67000198
H    19.22000122  11.54000092  48.06999969
H    21.47000122  11.36999989  47.69000244
H    23.85999870  12.18999958  48.20999908
H    22.40999985  13.52000046  52.04000092
H    14.29999924  12.93000031  51.84999847
H    25.15000153  13.32999992  49.40999985
H    24.77000046  14.35999966  50.81999969
S    13.63000011  11.21999931  47.36999893
C    10.92000008  11.14999962  48.15000153
C    12.23000050  11.49000072  48.41999817
C    12.61000061  12.09000015  49.65999985
C    11.64000034  12.44999981  50.56999969
C    10.27999973  12.10999966  50.34000015
C     9.26000023  12.23999977  51.31999969
C     7.97999954  11.77000046  51.11000061
C     7.67000008  11.02000046  49.93999863
C     8.61999989  10.88000107  48.95999908
C     9.92000008  11.43000031  49.12000275
C    14.06000042  12.18000031  49.78000259
C    14.75000000  11.61000061  48.68000031
C    16.13999939  11.46999931  48.63999939
C     6.24000025  10.59999943  49.68000031
H     5.75476789  11.24221897  48.94501495
H    10.65000057  10.51000023  47.31999969
H    11.90999985  12.79999924  51.56000137
H     9.43000031  12.81999969  52.22000122
H     7.22000027  11.98999977  51.84999847
H     8.27999973  10.44999981  48.02000046
H    16.59000015  11.14999962  47.70999908
H     5.65999985  10.57000065  50.61000061
H     6.17999983   9.53999996  49.38999939
