96

S    16.80999947  12.05000019  58.62999725
C    19.52000046  12.51999950  57.88999939
C    18.22000122  12.18999958  57.56000137
C    17.86000061  11.84999943  56.22000122
C    18.86999893  11.77999973  55.27000046
C    20.22999954  12.02000046  55.61000061
C    21.34000015  11.84000015  54.73999786
C    22.62000084  12.15999985  55.13999939
C    22.86000061  12.76999950  56.39999771
C    21.87999916  12.81000042  57.36000061
C    20.56999969  12.42000008  56.95000076
C    16.42000008  11.76000023  56.07999802
C    15.67999935  12.02000046  57.25999832
C    14.30999947  12.25999928  57.27000427
C    24.27999878  13.17000008  56.73999786
H    24.67919159  12.61398125  57.58828354
H    19.70000076  12.86999893  58.89999771
H    18.68999863  11.71000004  54.20000076
H    21.21999931  11.31000042  53.80000305
H    23.43000031  12.10999966  54.41999817
H    21.90000153  13.15999985  58.39000320
H    13.71000099  12.63000011  58.09999847
H    24.96000099  13.14000034  55.89000320
H    24.33000183  14.18000031  57.18000031
S    13.22999954  11.23999977  53.57999802
C    10.48999977  11.13999939  54.22999954
C    11.77999973  11.44999981  54.58000183
C    12.13999939  11.84999943  55.90999985
C    11.18999958  11.84999943  56.90999985
C     9.85999966  11.54999924  56.52000046
C     8.80999947  11.54999924  57.48000336
C     7.50999975  11.23000050  57.16999817
C     7.13999987  10.85999966  55.84999847
C     8.10000038  10.85999966  54.86999893
C     9.44999981  11.18999958  55.19000244
C    13.57999992  11.97999954  56.11000061
C    14.30999947  11.57999992  54.94999695
C    15.69000053  11.44999981  54.93000031
C     5.69999981  10.55999947  55.47999954
H     5.38080597  10.97140503  54.52241898
H    10.34999943  10.62999916  53.27000046
H    11.52999973  12.05999947  57.91999817
H     9.09000015  11.80999947  58.50000000
H     6.78999996  11.18999958  57.97999954
H     7.85000038  10.47999954  53.88999939
H    16.18999863  11.14999962  54.01000214
H     5.21000004  11.05999947  56.31999969
H     5.51999998   9.48000050  55.50000000
S    13.07000065   9.22000027  50.72999954
C    10.42000008   8.52000046  51.45000076
C    11.77999973   8.42000008  51.65000153
C    12.25000000   7.69000006  52.78999710
C    11.35000038   7.11000013  53.66000366
C     9.96999931   7.40999985  53.57999802
C     9.02999973   6.72999954  54.38999939
C     7.68000031   6.67999983  54.13000107
C     7.21000004   7.39000034  52.98999786
C     8.09000015   7.86000013  52.04000092
C     9.48000050   7.90000010  52.31999969
C    13.68999958   7.78999996  52.95999908
C    14.22999954   8.60999966  51.93000031
C    15.57999992   8.93000031  51.98999786
C     5.72000027   7.36000013  52.72999573
H     5.51387310   7.90019464  51.80598068
H    10.08999920   9.02999973  50.54999924
H    11.69000053   6.21999979  54.19000244
H     9.48999977   6.11000013  55.15999603
H     6.94000006   6.03999996  54.61000061
H     7.85000038   8.47999954  51.18000031
H    16.10000038   9.43000031  51.18000031
H     5.46999979   6.32999992  52.43999863
H     5.03000021   7.63999987  53.54000092
S    16.90000153   7.22000027  55.34999847
C    19.56999969   7.88999987  54.75000000
C    18.22999954   7.99000025  54.45000076
C    17.82999992   8.52999973  53.18000031
C    18.78999901   9.06000042  52.34000397
C    20.15999985   9.02999973  52.69000244
C    21.14999962   9.55999947  51.81999969
C    22.44999886   9.59999943  52.29000092
C    22.93000031   8.80000019  53.36000061
C    21.97999954   8.23999977  54.18000031
C    20.59000015   8.34999943  53.88000107
C    16.39999962   8.38999939  52.98999786
C    15.80000019   7.62000036  54.02000046
C    14.42999935   7.36999989  54.06999969
C    24.37999916   8.46000004  53.56999969
H    24.80639458   8.96456814  54.43700409
H    19.73999977   7.42999983  55.72000122
H    18.45999908   9.39000034  51.36000061
H    20.85000038  10.06000042  50.90000153
H    23.12999916  10.27999973  51.79000092
H    22.25000000   7.59999990  55.01999664
H    14.00000000   6.76000023  54.85000229
H    25.05000114   8.56999969  52.70000076
H    24.31999969   7.40000010  53.82999802
