96

S    16.50000000  12.20999908  58.50999832
C    19.25000000  12.07999992  57.91999817
C    17.94000053  11.92999935  57.51999664
C    17.56999969  11.64000034  56.17000198
C    18.61999893  11.52999973  55.27000046
C    19.96000099  11.77999973  55.63999939
C    21.04000092  11.61999893  54.72000122
C    22.27000046  12.15000057  55.02999878
C    22.63000107  12.53000069  56.35000229
C    21.64999962  12.51000023  57.31999969
C    20.32999992  12.10999966  56.98999786
C    16.13999939  11.44000053  56.00000000
C    15.42000008  11.87999916  57.15000153
C    14.04000092  11.90999985  57.28000259
C    23.98999977  13.01000023  56.81000137
H    24.43904305  12.32574177  57.52989578
H    19.48999977  12.44999981  58.90999603
H    18.39999962  11.23000050  54.25000000
H    20.72000122  11.36000061  53.70999908
H    23.00000000  12.20999908  54.22999954
H    21.81999969  12.97999954  58.29000092
H    13.64999962  12.18000031  58.25000000
H    24.54999924  12.96000004  55.86999893
H    23.92000008  14.04000092  57.16999817
S    12.79000092  10.64000034  53.72000122
C    10.17000008  10.36999893  54.47999954
C    11.39000034  10.90999985  54.78000259
C    11.84000015  11.31000042  56.07999802
C    10.85999966  11.38000011  57.04999924
C     9.52000046  11.09000015  56.72999954
C     8.52000046  11.31000042  57.72999573
C     7.21000004  10.95999908  57.50000000
C     6.88000011  10.14999962  56.38000107
C     7.82000017  10.03999901  55.38000107
C     9.19000053  10.42000008  55.50000000
C    13.27999973  11.51000023  56.17000198
C    13.94999981  11.10000038  54.98000336
C    15.34000015  11.05999947  54.92000198
C     5.45000029   9.77999973  56.09000397
H     5.02251387  10.47822762  55.37039948
H     9.89000034  10.07999992  53.47000122
H    11.19999981  11.94000053  57.91999817
H     8.89000034  11.71000004  58.67000198
H     6.52999973  11.23000050  58.29999924
H     7.53000021   9.78999996  54.36000061
H    15.69000053  10.65999985  53.96999741
H     4.86999989   9.77000046  57.02000046
H     5.40999985   8.76999950  55.66999817
S    16.69000053  12.69999981  52.49000168
C    19.34999847  12.88000011  51.72999954
C    18.06999969  12.53000069  51.38000107
C    17.71000099  12.10000038  50.06000137
C    18.75000000  12.01000023  49.15000153
C    20.10999870  12.25000000  49.47000122
C    21.15999985  12.10000038  48.52000427
C    22.43000031  12.48999977  48.86000061
C    22.72999954  12.84999943  50.20000076
C    21.73999977  13.07999992  51.12999725
C    20.39999962  12.74000072  50.79000092
C    16.26000023  12.05000019  49.94999695
C    15.57999992  12.23999977  51.18000031
C    14.19999981  12.41000080  51.18999863
C    24.13000107  13.26000023  50.59999847
H    24.62767220  12.67701149  51.37494659
H    19.52999878  13.38999939  52.67000198
H    18.61999893  11.54999924  48.18000031
H    20.95000076  11.78999996  47.50000000
H    23.21000099  12.57999992  48.09999847
H    21.97000122  13.45000076  52.12999725
H    13.76000023  12.58999920  52.15999985
H    24.75000000  13.25000000  49.68999863
H    24.06999969  14.27000046  51.00999832
S    13.10999966  11.31999969  47.48000336
C    10.40999985  11.18999958  48.23999786
C    11.69000053  11.63000011  48.48999786
C    12.05999947  12.05999947  49.79999924
C    11.13999939  12.11999989  50.83000183
C     9.80000019  11.73999977  50.59999847
C     8.78000069  11.72999954  51.59999847
C     7.50000000  11.31999969  51.27999878
C     7.18999958  10.72999954  50.02999878
C     8.15999985  10.72000027  49.05000305
C     9.46000004  11.26000023  49.29000092
C    13.50000000  12.15000057  50.00000000
C    14.18000031  11.79999924  48.80000305
C    15.57000065  11.73999977  48.76999664
C     5.75000000  10.34999943  49.75000000
H     5.40797329  10.99129963  48.93768692
H    10.19999981  10.78999996  47.25000000
H    11.39999962  12.28999996  51.86999893
H     8.97000027  12.13000107  52.58999634
H     6.75000000  11.38000011  52.05999756
H     7.95000029  10.67000008  47.98999786
H    16.03999901  11.50000000  47.81999969
H     5.12000036  10.60999966  50.61000061
H     5.50000000   9.30999947  49.52000046
