96

S    16.42000008  12.43000031  58.44999695
C    19.09000015  12.53000069  57.74000168
C    17.81999969  12.13999939  57.38999939
C    17.43000031  11.67000008  56.09000397
C    18.36000061  11.47999954  55.08999634
C    19.70000076  11.67000008  55.51000214
C    20.78000069  11.18999958  54.69999695
C    22.04999924  11.63000011  54.98000336
C    22.37999916  12.41000080  56.11999893
C    21.37000084  12.86000061  56.93999863
C    20.06000137  12.34000015  56.72999954
C    16.01000023  11.36999989  56.04000092
C    15.32999992  11.78999996  57.21000290
C    13.94000053  11.92000008  57.23999786
C    23.81000137  12.86999893  56.33999634
H    24.30873489  12.27151871  57.10235214
H    19.29000092  13.04999924  58.68000031
H    18.06999969  10.88999939  54.22999954
H    20.55999947  10.67000008  53.77999878
H    22.78000069  11.52999973  54.19000244
H    21.65999985  13.35999966  57.85999680
H    13.40000057  12.15000057  58.15000153
H    24.28999901  12.89999962  55.35999680
H    23.88000107  13.94000053  56.56000137
S    12.79000092  10.71000004  53.56999969
C    10.08999920  10.55999947  54.29000092
C    11.36000061  10.98000050  54.59000015
C    11.80999947  11.44000053  55.87999725
C    10.81999969  11.73999977  56.79999924
C     9.47000027  11.36999989  56.58000183
C     8.43000031  11.68000031  57.50999832
C     7.11999989  11.46000004  57.16999817
C     6.80999994  10.80000019  55.96000290
C     7.77999973  10.43000031  55.05000305
C     9.13999939  10.77000046  55.31999969
C    13.23999977  11.59999943  56.06999969
C    13.88000011  11.23000050  54.86000061
C    15.26000023  11.05000019  54.89999771
C     5.38000011  10.42000008  55.65999985
H     4.93681192  11.04904175  54.88799667
H     9.77999973  10.34999943  53.27000046
H    11.17000008  12.15000057  57.74000168
H     8.67000008  12.18999958  58.43999863
H     6.32000017  11.71000004  57.87000275
H     7.60999966   9.94999981  54.09000015
H    15.80000019  10.95000076  53.95999908
H     4.79999971  10.52000046  56.59000015
H     5.19999981   9.35999966  55.44000244
S    17.04000092  12.90999985  52.48000336
C    19.69000053  12.65999985  51.83000183
C    18.38999939  12.38000011  51.45999908
C    17.97999954  11.97999954  50.13999939
C    18.94000053  11.64000034  49.20000076
C    20.29999924  11.82999992  49.55999756
C    21.32999802  11.64000034  48.59000397
C    22.60000038  12.10999966  48.79000092
C    22.90999985  12.86999893  49.95999908
C    21.94999886  12.98999977  50.93999863
C    20.65000153  12.43000031  50.81999969
C    16.53000069  12.01000023  50.01999664
C    15.88999939  12.48999977  51.18999863
C    14.50000000  12.48000050  51.23000336
C    24.36000061  13.17999935  50.20999908
H    24.82947540  12.53980732  50.95689011
H    19.98999977  13.20000076  52.71999741
H    18.71999931  11.46000004  48.15999985
H    21.01000023  11.36999989  47.58999634
H    23.29999924  11.96000004  47.97000122
H    22.34000015  13.38000107  51.88999939
H    14.17000008  12.79000092  52.21000290
H    24.82000160  12.97000027  49.23999786
H    24.51999855  14.26000023  50.31000137
S    13.34000015  11.44000053  47.57999802
C    10.64000034  11.19999981  48.30999756
C    11.92000008  11.59000015  48.62999725
C    12.23999977  12.02000046  49.95999908
C    11.26000023  12.23000050  50.90999985
C     9.94000053  11.84000015  50.61999893
C     8.89999962  11.94000053  51.59999847
C     7.64999962  11.50000000  51.25000000
C     7.36000013  11.00000000  49.94999695
C     8.31999969  10.97000027  48.95999908
C     9.64999962  11.32999992  49.29999924
C    13.68000031  12.15000057  50.13999939
C    14.37999916  11.80999947  48.95999908
C    15.76000023  11.61999893  48.90999603
C     5.97000027  10.47000027  49.71000290
H     5.41611052  11.03099060  48.95727921
H    10.34000015  10.90999985  47.29999924
H    11.56000042  12.60000038  51.90000153
H     9.10000038  12.10999966  52.64999771
H     7.00000000  11.26000023  52.09000015
H     8.13000011  10.59000015  47.95999908
H    16.22999954  11.28999901  47.98999786
H     5.40999985  10.57999992  50.65000153
H     6.05999994   9.39000034  49.54999924
