96

S    17.02000046  12.10999966  58.70999908
C    19.65999985  12.35000038  57.88000107
C    18.38000107  11.96000004  57.58999634
C    17.95999908  11.36999989  56.35000229
C    18.86999893  11.26000023  55.31999969
C    20.17999840  11.72000027  55.59000015
C    21.14999962  11.71000004  54.54000092
C    22.39999962  12.23999977  54.75000000
C    22.79000092  12.64000034  56.04999924
C    21.94999886  12.65999985  57.14000320
C    20.63999939  12.17000008  56.86999893
C    16.52000046  11.13999939  56.33999634
C    15.82999992  11.61000061  57.49000168
C    14.47000027  11.84999943  57.47000122
C    24.23999977  13.01000023  56.29000092
H    24.67239189  12.50672340  57.15478516
H    19.93999863  12.76999950  58.83999634
H    18.55999947  10.73999977  54.41999817
H    20.88000107  11.49000072  53.50999832
H    23.11000061  12.25000000  53.92000198
H    22.11000061  12.89000034  58.18999863
H    14.04000092  12.17000008  58.43000031
H    24.72999954  12.79999924  55.33000183
H    24.26000214  14.07999992  56.50000000
S    13.38999939  10.71000004  53.80000305
C    10.65999985  10.80999947  54.36000061
C    11.95000076  11.02000046  54.79999924
C    12.28000069  11.51999950  56.10000229
C    11.21000099  11.61999893  56.95999908
C     9.85999966  11.50000000  56.52999878
C     8.82000065  11.51999950  57.50000000
C     7.55000019  11.19999981  57.09000015
C     7.17999983  10.93000031  55.75000000
C     8.19999981  10.80000019  54.84000397
C     9.55000019  11.13999939  55.18000031
C    13.71999931  11.59999943  56.31999969
C    14.42999935  11.13000011  55.18000031
C    15.80000019  10.88999939  55.15999603
C     5.73999977  10.52000046  55.50000000
H     5.30573082  10.97562695  54.61010361
H    10.50000000  10.36000061  53.39000320
H    11.36000061  11.85999966  58.01000214
H     9.09000015  11.61000061  58.54999924
H     6.80000019  11.06999969  57.85999680
H     7.96000004  10.29999924  53.90999603
H    16.28999901  10.65999985  54.22999954
H     5.09000015  10.72000027  56.36000061
H     5.79999971   9.44999981  55.27000046
S    13.67000008   8.93000031  50.66999817
C    11.00000000   8.48999977  51.45999908
C    12.35000038   8.38000011  51.72000122
C    12.81999969   7.64999962  52.85999680
C    11.90000057   6.96000004  53.62999725
C    10.51000023   7.16000032  53.43000031
C     9.52999973   6.51000023  54.22999954
C     8.18000031   6.63999987  54.02000046
C     7.72000027   7.42999983  52.93000031
C     8.61999989   8.07999992  52.11999893
C    10.01999950   7.94000053  52.31999969
C    14.26000023   7.81000042  53.00000000
C    14.85999966   8.50000000  51.90999985
C    16.21999931   8.80000019  51.98999786
C     6.24000025   7.57000017  52.64999771
H     5.91276264   7.39215326  51.62560272
H    10.72000027   8.78999996  50.45000076
H    12.31999969   6.32999992  54.40999985
H     9.78999996   5.82999992  55.02999878
H     7.50999975   6.15999985  54.72999954
H     8.22000027   8.67999935  51.30000305
H    16.70999908   9.40999985  51.23000336
H     5.65999985   6.80000019  53.18000031
H     5.86999989   8.53999996  52.98999786
S    17.46999931   7.05999947  55.38999939
C    20.15000153   7.64999962  54.71000290
C    18.81000137   7.64999962  54.38999939
C    18.42000008   8.36000061  53.20999908
C    19.29000092   8.89999962  52.28000259
C    20.68000031   8.76999950  52.55000305
C    21.60000038   9.51000023  51.75000000
C    22.93999863   9.46000004  52.02999878
C    23.39999962   8.73999977  53.15999985
C    22.50000000   8.15999985  54.02000046
C    21.09000015   8.15999985  53.79000092
C    16.97000122   8.36000061  53.09000015
C    16.38000107   7.55000019  54.09000015
C    15.01999950   7.26000023  54.03999710
C    24.89999962   8.52000046  53.26000214
H    25.30711365   8.66999054  54.25993347
H    20.51000214   7.30999994  55.68000031
H    18.78999901   9.31999969  51.42000198
H    21.21999931  10.01000023  50.86000061
H    23.57000160   9.82999992  51.23000336
H    22.76000023   7.75000000  54.99000168
H    14.52999973   6.61000013  54.75999832
H    25.48999977   9.18000031  52.61000061
H    25.19000053   7.53000021  52.88999939
