96

S    16.98999977  12.30999947  58.34000015
C    19.63000107  12.30000019  57.47000122
C    18.31999969  11.94000053  57.23999786
C    17.88999939  11.32999992  56.02000427
C    18.79999924  11.13000011  55.00000000
C    20.13999939  11.56000042  55.15999603
C    21.14999962  11.36999989  54.18000031
C    22.47999954  11.64000034  54.38999939
C    22.85000038  12.32999992  55.56999969
C    21.90999985  12.56000042  56.55000305
C    20.55000114  12.18000031  56.39999771
C    16.44000053  11.13000011  56.04999924
C    15.80000019  11.73999977  57.15000153
C    14.44000053  12.01000023  57.09000015
C    24.28999901  12.74000072  55.81999969
H    24.74048233  12.15365982  56.62085342
H    19.86999893  12.75000000  58.43000031
H    18.44000053  10.67000008  54.08000183
H    20.95999908  10.65999985  53.37999725
H    23.22000122  11.23999977  53.69999695
H    22.27000046  12.89000034  57.51999664
H    13.96000004  12.57999992  57.88000107
H    24.89000130  12.64000034  54.91000366
H    24.27000046  13.80000019  56.12999725
S    13.22000027  10.60999966  53.57999802
C    10.54999924  10.32999992  54.38000107
C    11.80999947  10.84000015  54.61999893
C    12.18000031  11.36999989  55.90000153
C    11.13000011  11.63000011  56.76000214
C     9.81000042  11.16000080  56.56999969
C     8.76999950  11.36000061  57.54000092
C     7.53000021  10.93000031  57.15000153
C     7.16000032  10.26999950  55.94999695
C     8.19999981  10.03000069  55.07999802
C     9.52000046  10.46000004  55.34999847
C    13.61999989  11.47999954  56.09000397
C    14.28999996  10.92000008  54.95999908
C    15.67000008  10.80999947  54.92000198
C     5.73000002   9.86999989  55.61999893
H     5.31026459  10.47470379  54.81609726
H    10.22999954   9.77999973  53.50000000
H    11.32999992  12.18999958  57.67000198
H     9.09000015  11.77000046  58.48999786
H     6.75000000  11.00000000  57.90999985
H     8.02999973   9.35999966  54.22999954
H    16.10000038  10.39999962  54.02000046
H     5.09000015   9.84000015  56.51000214
H     5.68000031   8.84000015  55.25000000
S    13.40999985   8.60999966  50.86000061
C    10.73999977   7.88000011  51.52000046
C    12.07999992   7.92999983  51.81000137
C    12.58999920   7.26000023  52.97000122
C    11.77000046   6.51000023  53.79000092
C    10.36999893   6.56000042  53.57999802
C     9.43000031   5.96000004  54.45999908
C     8.07999992   6.02999973  54.22000122
C     7.57999992   6.65999985  53.04999924
C     8.43999958   7.26000023  52.16999817
C     9.84000015   7.26000023  52.43000031
C    14.01999950   7.46999979  53.18999863
C    14.60000038   8.14999962  52.09999847
C    15.95999908   8.46000004  51.97999954
C     6.11000013   6.94999981  52.84000015
H     5.73314238   6.68691015  51.85163498
H    10.47000027   8.30000019  50.56000137
H    12.13999939   6.02999973  54.68999863
H     9.84000015   5.51999998  55.37000275
H     7.36000013   5.73999977  54.99000168
H     8.10999966   7.73000002  51.25000000
H    16.39999962   8.92000008  51.11000061
H     5.52999973   6.38999987  53.59000397
H     5.96000004   8.00000000  53.11000061
S    17.50000000   6.97000027  55.27999878
C    20.12000084   7.46999979  54.45000076
C    18.77000046   7.55999994  54.19000244
C    18.29000092   8.17000008  52.98999786
C    19.13999939   8.56999969  51.97999954
C    20.52999878   8.43000031  52.22000122
C    21.40000153   9.03999996  51.27999878
C    22.76000023   8.97000027  51.50000000
C    23.29000092   8.40999985  52.69000244
C    22.44999886   8.01000023  53.69999695
C    21.04000092   7.97999954  53.48999786
C    16.84000015   8.05000019  52.98999786
C    16.25000000   7.36999989  54.09000015
C    14.88999939   7.07999992  54.20999908
C    24.79000092   8.28999996  52.84999847
H    25.09570122   8.33976555  53.89506912
H    20.45999908   7.03000021  55.38000107
H    18.84000015   9.03999996  51.04999924
H    20.95000076   9.52999973  50.41999817
H    23.43000031   9.35000038  50.73999786
H    22.88000107   7.67000008  54.64000320
H    14.50000000   6.52999973  55.06000137
H    25.22999954   9.13999939  52.31999969
H    25.00000000   7.28999996  52.43999863
