96

S    16.72000122  12.05000019  58.60000229
C    19.43000031  12.05999947  57.74000168
C    18.09999847  11.78999996  57.51999664
C    17.71999931  11.26000023  56.25000000
C    18.67000008  11.10999966  55.25000000
C    20.03999901  11.43000031  55.44000244
C    21.02000046  11.31999969  54.41999817
C    22.34000015  11.47999954  54.75999832
C    22.73999977  12.02000046  56.00999832
C    21.80000114  12.18000031  57.00000000
C    20.42000008  11.92000008  56.73999786
C    16.27000046  11.14999962  56.18000031
C    15.57000065  11.59000015  57.31999969
C    14.19000053  11.79999924  57.35000229
C    24.14999962  12.44999981  56.33999634
H    24.73114777  11.79089165  56.98493195
H    19.77000046  12.43000031  58.70999908
H    18.39999962  10.77999973  54.25000000
H    20.79000092  11.00999928  53.40000153
H    23.15999985  11.23999977  54.09000015
H    22.14999962  12.68000031  57.90000153
H    13.71999931  11.96000004  58.30999756
H    24.73999977  12.53999901  55.41999817
H    24.11999893  13.43000031  56.84000015
S    13.05999947  10.65999985  53.72000122
C    10.31000042  10.82999992  54.43999863
C    11.64000034  11.03999996  54.72000122
C    12.02999973  11.39999962  56.04999924
C    11.09000015  11.61999893  57.04000092
C     9.72999954  11.39000034  56.72999954
C     8.69999981  11.47999954  57.70999908
C     7.42999983  10.98999977  57.50000000
C     7.07999992  10.43000031  56.25000000
C     7.97999954  10.44999981  55.20999908
C     9.30999947  10.90999985  55.44000244
C    13.48000050  11.46999931  56.18999863
C    14.19000053  11.05999947  55.02999878
C    15.55999947  10.85999966  55.00000000
C     5.60999966  10.10000038  56.06999969
H     5.12721348  10.73188210  55.32452011
H    10.03999901  10.31000042  53.52000427
H    11.40999985  12.03999996  57.98999786
H     9.02999973  11.87000084  58.67000198
H     6.63999987  11.03000069  58.23999786
H     7.60999966  10.03999901  54.27000046
H    15.95000076  10.53999996  54.03999710
H     5.19999981  10.05000019  57.08000183
H     5.59999990   9.09000015  55.63999939
S    16.98999977  12.55000019  52.37999725
C    19.65999985  12.79999924  51.63000107
C    18.39999962  12.35999966  51.31999969
C    18.06999969  11.69000053  50.10000229
C    19.10000038  11.39000034  49.22999954
C    20.40999985  11.87000084  49.45999908
C    21.52000046  11.65999985  48.59000397
C    22.80999947  11.96000004  48.95999908
C    23.06999969  12.69000053  50.14999771
C    22.03000069  12.94000053  51.00999832
C    20.69999886  12.53999901  50.70000076
C    16.62999916  11.47999954  49.97000122
C    15.92000008  12.02000046  51.06999969
C    14.52999973  12.11999989  51.07999802
C    24.47000122  13.02000046  50.63000107
H    24.80558205  12.37739372  51.44396973
H    19.88999939  13.30999947  52.56999969
H    18.86000061  10.85999966  48.31999969
H    21.42000008  11.26000023  47.58999634
H    23.61999893  11.75000000  48.27000046
H    22.19000053  13.30999947  52.02000046
H    14.06000042  12.46000099  52.00000000
H    25.10000038  13.03999996  49.72999954
H    24.47999954  14.07999992  50.91999817
S    13.42000008  11.03000069  47.48000336
C    10.69000053  11.23000050  48.06000137
C    11.98999977  11.42000008  48.44999695
C    12.34000015  11.85999966  49.77000427
C    11.33999920  12.13999939  50.68999863
C    10.01999950  11.87000084  50.28999710
C     8.97000027  11.82999992  51.25000000
C     7.72000027  11.31000042  51.02000427
C     7.31999969  11.00000000  49.68999863
C     8.27000046  11.05000019  48.69999695
C     9.63000011  11.36999989  49.00000000
C    13.78000069  11.80999947  49.93999863
C    14.50000000  11.18999958  48.88000107
C    15.85999966  10.93999958  48.93000031
C     5.86999989  10.65000057  49.41999817
H     5.40836477  11.22526932  48.61746597
H    10.46000004  10.90000057  47.05999756
H    11.63000011  12.28000069  51.72999954
H     9.27999973  12.13000107  52.23999786
H     6.98000002  11.32999992  51.81999969
H     8.10000038  10.75000000  47.67000198
H    16.44000053  10.39999962  48.18000031
H     5.35000038  10.62999916  50.38000107
H     5.78999996   9.59000015  49.13999939
