96

S    16.60000038  12.23999977  58.39000320
C    19.29999924  12.74000072  57.58999634
C    18.02999878  12.25999928  57.34000397
C    17.71999931  11.78999996  56.03000259
C    18.70000076  11.51000023  55.10000229
C    19.98999977  12.02999973  55.34000015
C    21.07999992  11.84999943  54.43999863
C    22.37999916  12.15000057  54.79000092
C    22.67999840  12.82999992  55.98999786
C    21.63999939  13.07000065  56.86000061
C    20.29999924  12.69000053  56.58000183
C    16.28000069  11.78999996  55.79000092
C    15.54999924  12.03999996  56.97999954
C    14.17000008  12.13999939  57.05999756
C    24.09000015  13.21000004  56.39999771
H    24.67534637  12.46760941  56.94251633
H    19.54000092  13.00000000  58.61999893
H    18.57999992  10.90999985  54.19000244
H    20.85000038  11.32999992  53.52000427
H    23.13999939  11.79999924  54.09999847
H    21.94999886  13.45999908  57.83000183
H    13.73999977  12.28000069  58.04999924
H    24.70000076  13.35000038  55.50000000
H    23.94000053  14.22999954  56.79999924
S    13.14000034  11.06999969  53.33000183
C    10.40999985  11.18999958  54.02000046
C    11.72000027  11.43000031  54.34000015
C    12.06999969  11.84000015  55.65999985
C    11.11999989  12.02999973  56.63999939
C     9.77999973  11.69000053  56.36000061
C     8.78999996  11.69999981  57.38999939
C     7.44999981  11.49000072  57.15000153
C     7.09999990  11.11999989  55.81999969
C     8.03999996  10.98000050  54.81999969
C     9.40999985  11.30000019  55.01999664
C    13.50999928  11.82000065  55.86000061
C    14.21000004  11.40999985  54.69999695
C    15.59999943  11.39000034  54.62999725
C     5.64000034  10.84000015  55.54999924
H     5.24744034  11.23969746  54.61499023
H    10.01000023  10.88000107  53.04999924
H    11.46999931  12.20000076  57.65999603
H     9.10000038  12.13000107  58.34000015
H     6.71000004  11.61000061  57.93000031
H     7.75000000  10.60999966  53.85000229
H    16.13000107  11.03999996  53.75000000
H     4.98000002  11.28000069  56.31000137
H     5.55000019   9.75000000  55.54999924
S    13.12999916   8.88000011  50.63000107
C    10.51000023   8.51000023  51.45000076
C    11.84999943   8.28999996  51.70000076
C    12.38999939   7.62000036  52.84000015
C    11.51000023   7.25000000  53.83999634
C    10.14000034   7.59999990  53.72000122
C     9.19000053   7.00999975  54.59000015
C     7.82999992   7.09999990  54.36000061
C     7.34000015   7.69000006  53.15999985
C     8.22000027   8.32999992  52.31999969
C     9.61999989   8.14999962  52.50000000
C    13.83999920   7.72000027  52.93000031
C    14.37000084   8.39999962  51.81000137
C    15.70000076   8.80999947  51.77999878
C     5.86000013   7.59000015  52.90999985
H     5.59623051   7.73257828  51.86204910
H    10.06999969   8.89999962  50.54000092
H    11.78999996   6.76000023  54.77000427
H     9.48999977   6.19999981  55.25000000
H     7.27999973   6.42000008  55.00000000
H     7.85000038   8.76000023  51.38999939
H    16.13999939   9.35999966  50.96000290
H     5.42999983   6.67999983  53.34000015
H     5.45000029   8.36000061  53.57999802
S    17.18000031   7.37999964  55.20999908
C    19.84000015   7.73999977  54.36999893
C    18.50000000   7.92999983  54.15999985
C    18.00000000   8.63000011  53.01000214
C    18.92000008   9.27999973  52.22000122
C    20.30999947   9.03999996  52.34000397
C    21.27000046   9.52000046  51.39999771
C    22.60999870   9.25000000  51.53999710
C    23.06999969   8.56999969  52.69000244
C    22.17000008   7.97999954  53.55999756
C    20.79000092   8.28999996  53.47000122
C    16.56999969   8.42000008  52.81000137
C    16.01000023   7.75000000  53.93000031
C    14.65999985   7.46000004  54.03999710
C    24.54999924   8.30999947  52.81000137
H    24.91939354   8.49469662  53.81872940
H    20.17999840   6.98999977  55.08999634
H    18.60000038   9.96999931  51.44000244
H    20.86000061  10.03000069  50.52999878
H    23.31999969   9.51000023  50.77000046
H    22.40999985   7.23000002  54.31000137
H    14.27999973   6.89000034  54.87999725
H    25.07999802   8.98999977  52.14000320
H    24.82000160   7.28999996  52.51999664
