96

S    16.73999977  12.15000057  58.23999786
C    19.45999908  12.32999992  57.50999832
C    18.19000053  11.85999966  57.25999832
C    17.86000061  11.36999989  55.96000290
C    18.81999969  11.23999977  54.98000336
C    20.17000008  11.59999943  55.24000168
C    21.22999954  11.64000034  54.29999924
C    22.52000046  11.97999954  54.62999725
C    22.85000038  12.31999969  55.97000122
C    21.83000183  12.41000080  56.88000107
C    20.48000145  12.06999969  56.56000137
C    16.42000008  11.31000042  55.70999908
C    15.71000004  11.72999954  56.86000061
C    14.32999992  11.76000023  57.01000214
C    24.26000214  12.61999989  56.43000031
H    24.45262909  12.17766762  57.40741348
H    19.72999954  12.76000023  58.47000122
H    18.59000015  10.82999992  54.00000000
H    20.96999931  11.23000050  53.33000183
H    23.36000061  11.90000057  53.94000244
H    22.06000137  12.76999950  57.88000107
H    13.86999989  12.18999958  57.90000153
H    25.00999832  12.32999992  55.68000031
H    24.37000084  13.71000099  56.38000107
S    13.15000057  10.65000057  53.39000320
C    10.44999981  10.54999924  54.09999847
C    11.72999954  10.95000076  54.40000153
C    12.09000015  11.46999931  55.68999863
C    11.09000015  11.72000027  56.60999680
C     9.73999977  11.46000004  56.29000092
C     8.67000008  11.68000031  57.19999695
C     7.37999964  11.32999992  56.84999847
C     7.07999992  10.76000023  55.58000183
C     8.07999992  10.55999947  54.65999985
C     9.43000031  10.84000015  55.02999878
C    13.53000069  11.46999931  55.89000320
C    14.23999977  11.06999969  54.72999954
C    15.62000084  11.02000046  54.59999847
C     5.65999985  10.36999893  55.20999908
H     5.13259602  11.11834335  54.61845398
H    10.11999989  10.31000042  53.09000015
H    11.31999969  12.01000023  57.63000107
H     8.89999962  11.98999977  58.22000122
H     6.51000023  11.51999950  57.47000122
H     7.73999977  10.21000004  53.68999863
H    16.03999901  10.90000057  53.61000061
H     5.00999975  10.21999931  56.07999802
H     5.51999998   9.44999981  54.62999725
S    17.40999985  12.69999981  52.19999695
C    20.05000114  13.01000023  51.25999832
C    18.77000046  12.56000042  51.06999969
C    18.45000076  11.89000034  49.84000397
C    19.37999916  11.75000000  48.82999802
C    20.72999954  12.15999985  49.03999710
C    21.84000015  11.97000027  48.16999817
C    23.15999985  12.18999958  48.52000427
C    23.48999977  12.76999950  49.77000427
C    22.39000130  13.22000027  50.47999954
C    21.04999924  12.81000042  50.27999878
C    17.00000000  11.73999977  49.73999786
C    16.31000137  12.20000076  50.89000320
C    14.93000031  12.23000050  50.97999954
C    24.92000198  12.97000027  50.21999741
H    25.28904152  12.38805008  51.06453323
H    20.22000122  13.71000099  52.08000183
H    19.02000046  11.10999966  48.04000092
H    21.63999939  11.61000061  47.16999817
H    23.94000053  11.84000015  47.85999680
H    22.63999939  13.82999992  51.33999634
H    14.37999916  12.58999920  51.84999847
H    25.56999969  12.81999969  49.34999847
H    25.06999969  14.01999950  50.51000214
S    13.78000069  11.35000038  47.23999786
C    11.10999966  11.36000061  48.02000046
C    12.42000008  11.59999943  48.34999847
C    12.76999950  12.10000038  49.65000153
C    11.79999924  12.23999977  50.61999893
C    10.47000027  11.90999985  50.28999710
C     9.42000008  12.15000057  51.23000336
C     8.10999966  11.97000027  50.86999893
C     7.75000000  11.28999901  49.66999817
C     8.71999931  11.11999989  48.70999908
C    10.06999969  11.46999931  48.97999573
C    14.22000027  12.06999969  49.78000259
C    14.88000011  11.68000031  48.59000397
C    16.26000023  11.50000000  48.57999802
C     6.37000036  10.70000076  49.54999924
H     5.86611652  11.18259239  48.71255875
H    10.88000107  11.09000015  46.98999786
H    12.07999992  12.56000042  51.62000275
H     9.75000000  12.35000038  52.23999786
H     7.34000015  12.01000023  51.63000107
H     8.53999996  10.76000023  47.69000244
H    16.72999954  11.25000000  47.63999939
H     5.82000017  10.72999954  50.50000000
H     6.57000017   9.61999989  49.47000122
