96

S    16.88999939  12.18000031  58.61999893
C    19.61000061  12.41000080  57.85999680
C    18.32999992  11.98999977  57.60000229
C    17.93000031  11.56999969  56.29000092
C    18.88000107  11.31999969  55.31999969
C    20.22000122  11.67000008  55.63000107
C    21.12999916  11.69000053  54.52999878
C    22.43999863  12.02999973  54.72000122
C    22.88999939  12.46999931  56.00000000
C    22.00000000  12.55000019  57.04000092
C    20.62000084  12.27000046  56.86999893
C    16.48999977  11.49000072  56.11999893
C    15.77000046  11.78999996  57.30999756
C    14.40000057  11.98999977  57.25999832
C    24.31999969  12.79000092  56.36000061
H    24.66263390  12.06190109  57.09523773
H    19.84000015  13.04999924  58.72000122
H    18.51000023  11.21999931  54.29999924
H    20.93000031  11.28000069  53.54000092
H    23.16999817  11.89000034  53.92000198
H    22.23999977  12.81000042  58.06999969
H    13.88000011  12.05999947  58.22000122
H    24.86000061  12.75000000  55.40000153
H    24.27000046  13.80000019  56.79000092
S    13.34000015  10.82999992  53.57999802
C    10.71000004  10.53999996  54.26000214
C    11.90999985  11.10999966  54.59999847
C    12.27000046  11.64000034  55.87999725
C    11.25000000  11.82999992  56.79999924
C     9.94999981  11.40999985  56.45999908
C     8.92000008  11.57999992  57.43000031
C     7.64999962  11.14999962  57.12999725
C     7.34000015  10.52000046  55.89000320
C     8.36999989  10.21999931  55.02999878
C     9.68999958  10.69000053  55.24000168
C    13.71000099  11.72999954  56.06999969
C    14.40999985  11.28000069  54.92000198
C    15.78999996  11.18000031  54.94999695
C     5.97000027   9.94999981  55.59999847
H     5.46458244  10.50524712  54.80983734
H    10.52999973  10.07999992  53.29999924
H    11.43000031  12.23000050  57.80000305
H     9.18000031  12.01000023  58.40000153
H     6.90999985  11.17000008  57.91999817
H     8.09000015   9.82999992  54.05000305
H    16.35000038  10.73999977  54.13000107
H     5.44000053   9.85999966  56.55000305
H     6.05000019   8.93000031  55.20000076
S    13.86999989   8.94999981  50.54999924
C    11.19999981   8.32999992  51.12999725
C    12.53000069   8.25000000  51.47999573
C    12.92000008   7.81000042  52.77999878
C    11.97999954   7.27999973  53.64999771
C    10.60999966   7.39000034  53.31999969
C     9.63000011   6.84000015  54.20000076
C     8.28999996   7.03000021  53.95000076
C     7.86000013   7.59999990  52.71999741
C     8.80999947   7.86999989  51.76000214
C    10.21000004   7.88999987  52.04000092
C    14.35999966   7.86999989  52.91999817
C    15.01000023   8.55000019  51.84999847
C    16.36999893   8.80999947  51.84999847
C     6.39999962   7.78999996  52.36000061
H     6.02842188   7.13259268  51.57396698
H    11.03999996   8.67000008  50.11000061
H    12.25999928   7.03999996  54.68000031
H    10.05000019   6.26999950  55.01999664
H     7.49000025   6.67000008  54.59999847
H     8.43000031   8.21000004  50.79999924
H    16.93000031   9.15999985  50.97999954
H     5.77000046   7.64999962  53.25000000
H     6.19000006   8.82999992  52.08000183
S    17.61999893   7.31999969  55.31999969
C    20.32999992   7.82000017  54.68999863
C    18.98999977   7.92000008  54.38000107
C    18.55999947   8.43000031  53.11000061
C    19.47000122   8.90999985  52.18000031
C    20.84000015   8.80000019  52.50999832
C    21.76000214   9.52000046  51.69000244
C    23.05000114   9.71000004  52.12999725
C    23.48999977   9.30999947  53.41999817
C    22.62000084   8.64999962  54.26000214
C    21.30000114   8.38000011  53.81000137
C    17.11000061   8.46000004  52.98999786
C    16.46000099   7.82999992  54.08000183
C    15.11999989   7.46000004  54.02999878
C    24.92000198   9.52999973  53.83999634
H    25.30287743   8.75715446  54.50649261
H    20.63999939   7.50000000  55.68000031
H    19.20999908   9.44000053  51.26999664
H    21.40000153  10.14000034  50.87999725
H    23.77000046  10.26000023  51.52999878
H    22.79000092   8.23999977  55.25000000
H    14.70999908   6.98000002  54.89999771
H    25.10000038  10.47000027  54.36000061
H    25.45000076   9.56999969  52.88000107
