96

S    16.79999924  12.10000038  58.36000061
C    19.44000053  12.36999989  57.52999878
C    18.17000008  11.90999985  57.25000000
C    17.79000092  11.31999969  56.00000000
C    18.81000137  11.19999981  55.06999969
C    20.15999985  11.50000000  55.34000015
C    21.27000046  11.36000061  54.45999908
C    22.57999802  11.65999985  54.75000000
C    22.80999947  12.23999977  56.03000259
C    21.80999947  12.46000099  56.95000076
C    20.48999977  12.05000019  56.63000107
C    16.35000038  11.10000038  55.97999954
C    15.65000057  11.51000023  57.14000320
C    14.27000046  11.54999924  57.21000290
C    24.23000145  12.67000008  56.32999802
H    24.62933922  12.22787666  57.24277115
H    19.72999954  13.07000065  58.30999756
H    18.53999901  10.80000019  54.09999847
H    21.01000023  11.05999947  53.44999695
H    23.32999992  11.69999981  53.96999741
H    22.03000069  12.79000092  57.97000122
H    13.85000038  12.15999985  58.01000214
H    24.90999985  12.43999958  55.51000214
H    24.13999939  13.76999950  56.36000061
S    13.09000015  10.50000000  53.55999756
C    10.40999985  10.15999985  54.47000122
C    11.72000027  10.52999973  54.68000031
C    12.06999969  11.05000019  55.96000290
C    11.03999996  11.36999989  56.83000183
C     9.65999985  11.17000008  56.59999847
C     8.59000015  11.61999893  57.43000031
C     7.30000019  11.23000050  57.18000031
C     6.98000002  10.55999947  55.97000122
C     7.99000025  10.22999954  55.10000229
C     9.36999989  10.47000027  55.38000107
C    13.50999928  11.23999977  56.07999802
C    14.19000053  10.92000008  54.87999725
C    15.57999992  10.77999973  54.86000061
C     5.53999996  10.21999931  55.65000153
H     5.16412449  10.76608276  54.78477859
H    10.13000011   9.68000031  53.53000259
H    11.28000069  11.85999966  57.77000046
H     8.85000038  12.20999908  58.30999756
H     6.56000042  11.56999969  57.90999985
H     7.69999981   9.65999985  54.22000122
H    16.11999893  10.52999973  53.95000076
H     4.90999985  10.05000019  56.52999878
H     5.68000031   9.18000031  55.33000183
S    12.90999985   8.36999989  50.84000015
C    10.34000015   7.96999979  51.75000000
C    11.67000008   7.69000006  51.91999817
C    12.23999977   6.94999981  53.01000214
C    11.36000061   6.52999973  53.99000168
C     9.96000004   6.67999983  53.80000305
C     9.03999996   6.01000023  54.65999985
C     7.69000006   5.92999983  54.40000153
C     7.16000032   6.60000038  53.27000046
C     8.01000023   7.36000013  52.50000000
C     9.43000031   7.34000015  52.63999939
C    13.68999958   7.13000011  53.06000137
C    14.19999981   7.77999973  51.90999985
C    15.52000046   8.23999977  51.84999847
C     5.75999975   6.24000025  52.84000015
H     5.54610538   6.48241425  51.79904556
H     9.98000050   8.56000042  50.90999985
H    11.79999924   5.92000008  54.77000427
H     9.50000000   5.27999973  55.31999969
H     7.07000017   5.19000006  54.89999771
H     7.68000031   8.00000000  51.69000244
H    15.81999969   8.71999931  50.91999817
H     5.78000021   5.14999962  52.97999954
H     5.01999950   6.65000010  53.54000092
S    17.01000023   7.02000046  55.40000153
C    19.64999962   7.57999992  54.59000015
C    18.30000114   7.62000036  54.33000183
C    17.80999947   8.22000027  53.13000107
C    18.68999863   8.80999947  52.23999786
C    20.09000015   8.76999950  52.43999863
C    21.04999924   9.25000000  51.51000214
C    22.39000130   9.22999954  51.79999924
C    22.86000061   8.67000008  53.02000046
C    21.94999886   8.09000015  53.88000107
C    20.55000114   8.13000011  53.63999939
C    16.39000130   7.95000029  52.90000153
C    15.88999939   7.30999994  54.06000137
C    14.53999996   6.96000004  54.15000153
C    24.34000015   8.52000046  53.30999756
H    24.74753380   8.86318588  54.26091385
H    20.03999901   7.23000002  55.54000092
H    18.30999947   9.13000011  51.26999664
H    20.65000153   9.89000034  50.72000122
H    23.16999817   9.68000031  51.18000031
H    22.29000092   7.59000015  54.79000092
H    14.04999924   6.43000031  54.95999908
H    24.86999893   9.18000031  52.62000275
H    24.60000038   7.46000004  53.15999985
