96

S    16.77000046  12.81999969  58.41999817
C    19.56999969  12.94000053  57.71999741
C    18.26000023  12.56999969  57.49000168
C    17.88999939  12.05000019  56.20999908
C    18.88000107  11.90000057  55.26000214
C    20.26000023  12.13000107  55.51000214
C    21.32999802  11.96000004  54.59999847
C    22.67000008  12.22000027  54.79999924
C    22.90999985  12.69999981  56.11999893
C    21.97999954  12.86999893  57.11999893
C    20.61000061  12.69999981  56.79000092
C    16.45000076  11.97999954  55.96000290
C    15.69000053  12.36999989  57.09000015
C    14.29999924  12.31999969  57.12999725
C    24.33000183  13.12000084  56.43000031
H    24.70709991  12.57925415  57.29803848
H    19.85000038  13.48999977  58.61999893
H    18.63000107  11.47999954  54.29000092
H    21.04999924  11.61000061  53.61000061
H    23.42000008  12.11999989  54.02999878
H    22.32000160  13.35999966  58.02999878
H    13.85000038  12.38000011  58.11999893
H    24.82999992  13.07000065  55.45000076
H    24.13000107  14.14999962  56.72999954
S    13.27999973  10.90999985  53.59000397
C    10.60999966  10.57000065  54.26000214
C    11.84999943  11.05000019  54.62999725
C    12.17000008  11.64999962  55.89000320
C    11.13999939  11.84999943  56.79000092
C     9.84000015  11.43000031  56.44000244
C     8.73000050  11.59000015  57.31999969
C     7.46999979  11.10000038  57.05999756
C     7.26000023  10.39000034  55.84999847
C     8.26000023  10.29000092  54.92000198
C     9.59000015  10.67999935  55.24000168
C    13.59000015  11.97000027  55.97000122
C    14.34999943  11.52999973  54.86000061
C    15.73999977  11.56000042  54.82999802
C     5.84999990   9.96999931  55.50000000
H     5.30280399  10.58115387  54.78224945
H    10.57999992  10.06999969  53.29000092
H    11.25000000  12.34000015  57.76000214
H     8.93999958  12.10999966  58.25000000
H     6.67000008  11.33999920  57.75000000
H     8.19000053   9.94999981  53.88999939
H    16.31000137  11.18999958  53.99000168
H     5.22000027   9.77999973  56.38000107
H     5.92000008   8.96000004  55.07999802
S    17.39999962  13.07000065  52.43000031
C    20.10000038  13.21000004  51.77000046
C    18.84000015  12.76000023  51.44000244
C    18.48999977  12.10999966  50.20999908
C    19.52000046  11.87000084  49.31999969
C    20.84000015  12.25999928  49.61000061
C    21.90000153  11.89000034  48.73000336
C    23.18000031  12.32999992  48.96999741
C    23.47999954  13.09999943  50.13000107
C    22.46999931  13.38000107  51.02000427
C    21.14000130  12.92000008  50.84999847
C    17.06999969  11.79999924  50.08999634
C    16.36000061  12.39999962  51.16000366
C    14.96999931  12.39999962  51.18999863
C    24.90999985  13.50999928  50.41999817
H    25.32846260  13.02061081  51.29948044
H    20.32999992  13.55999947  52.77000046
H    19.40000153  11.36999989  48.36000061
H    21.68000031  11.31000042  47.84000015
H    23.92000008  12.01000023  48.25000000
H    22.72000122  13.94000053  51.91999817
H    14.53999996  12.64999962  52.15999985
H    25.39999962  13.26000023  49.47000122
H    24.89999962  14.60999966  50.47000122
S    13.88000011  10.93999958  47.70000076
C    11.17000008  11.00999928  48.30999756
C    12.44999981  11.39999962  48.63999939
C    12.76999950  11.94000053  49.92000198
C    11.71000004  12.15000057  50.77999878
C    10.40999985  11.64999962  50.52999878
C     9.34000015  11.76000023  51.45999908
C     8.09000015  11.31999969  51.06999969
C     7.76999998  10.81999969  49.78000259
C     8.82000065  10.59000015  48.92000198
C    10.13000011  11.02000046  49.27000046
C    14.22000027  11.95000076  50.10000229
C    14.96999931  11.40999985  49.02000046
C    16.35000038  11.28999901  49.01000214
C     6.32999992  10.46000004  49.50000000
H     5.82541037  11.10672760  48.78220367
H    10.90999985  10.81999969  47.27000427
H    11.90000057  12.51999950  51.77999878
H     9.51000023  12.30000019  52.37999725
H     7.25000000  11.42000008  51.76000214
H     8.56000042  10.05000019  48.01000214
H    16.81999969  10.93999958  48.09999847
H     5.64000034  10.51000023  50.34999847
H     6.40999985   9.42000008  49.15999985
