96

S    16.97999954  12.15000057  58.55999756
C    19.67000008  12.43000031  57.78999710
C    18.37000084  12.09000015  57.47000122
C    17.98999977  11.59999943  56.17000198
C    19.00000000  11.46999931  55.24000168
C    20.36999893  11.71000004  55.54999924
C    21.37000084  11.28000069  54.62999725
C    22.67999840  11.46000004  55.00000000
C    23.03999901  11.98999977  56.26999664
C    22.09000015  12.35999966  57.18999863
C    20.71000099  12.18999958  56.86000061
C    16.54999924  11.44999981  56.05999756
C    15.85000038  11.69999981  57.27000427
C    14.47000027  11.84999943  57.30999756
C    24.46000099  12.30999947  56.66999817
H    24.78723907  11.91162395  57.63037109
H    19.96999931  12.79000092  58.76999664
H    18.68999863  11.05999947  54.29000092
H    21.04000092  10.98999977  53.63999939
H    23.40999985  11.33999920  54.20000076
H    22.30999947  12.86999893  58.11999893
H    13.89999962  12.05000019  58.22000122
H    25.10999870  11.98999977  55.84999847
H    24.47000122  13.40000057  56.79000092
S    13.26000023  10.77999973  53.68000031
C    10.62000084  10.62000084  54.47000122
C    11.87000084  11.13999939  54.72000122
C    12.27000046  11.61999893  56.00999832
C    11.25000000  11.80999947  56.91999817
C     9.89999962  11.47999954  56.68000031
C     8.80000019  11.72999954  57.55000305
C     7.51999950  11.40999985  57.18000031
C     7.22000027  10.67000008  56.00999832
C     8.27000046  10.39000034  55.17000198
C     9.59999943  10.80999947  55.44000244
C    13.71999931  11.63000011  56.13999939
C    14.40000057  11.31999969  54.93999863
C    15.77999973  11.23999977  54.91000366
C     5.84999990  10.05000019  55.79000092
H     5.36597967  10.72620487  55.08532333
H    10.44000053  10.08999920  53.54000092
H    11.44999981  12.05000019  57.95999908
H     9.01000023  12.03999996  58.56999969
H     6.76999998  11.42000008  57.97000122
H     7.96000004   9.77000046  54.33000183
H    16.29999924  11.05999947  53.96999741
H     5.28999996  10.01999950  56.73999786
H     5.78999996   9.06999969  55.30000305
S    13.48000050   8.63000011  50.59999847
C    10.81999969   8.23999977  51.25999832
C    12.13999939   8.05999947  51.60999680
C    12.56999969   7.35000038  52.77999878
C    11.57999992   6.88000011  53.61999893
C    10.21999931   7.20000029  53.36000061
C     9.22999954   6.78999996  54.29999924
C     7.90000010   6.85999966  53.95999908
C     7.44999981   7.53000021  52.78999710
C     8.39999962   8.14000034  52.00000000
C     9.80000019   7.92999983  52.19999695
C    14.00000000   7.51999950  52.97000122
C    14.56999969   8.34000015  51.95999908
C    15.86999989   8.82000065  52.04000092
C     5.98000002   7.85000038  52.61000061
H     5.47578478   7.38129282  51.76490784
H    10.60999966   8.73999977  50.31999969
H    11.82000065   6.23000050  54.45999908
H     9.48999977   6.38999987  55.27000046
H     7.17000008   6.61999989  54.72000122
H     8.14000034   8.78000069  51.16000366
H    16.29999924   9.44999981  51.26999664
H     5.49000025   7.71000004  53.57999802
H     5.97000027   8.93999958  52.50000000
S    17.26000023   7.34000015  55.48999786
C    19.89999962   7.83999968  54.79000092
C    18.55999947   8.01999950  54.50000000
C    18.12999916   8.60999966  53.27000046
C    19.12999916   9.01000023  52.41000366
C    20.51000214   8.84000015  52.62000275
C    21.54000092   9.26000023  51.72999954
C    22.86999893   8.98999977  51.95999908
C    23.22000122   8.32999992  53.16999817
C    22.27999878   8.01000023  54.13000107
C    20.89999962   8.25000000  53.88000107
C    16.69000053   8.43000031  53.09999847
C    16.13000107   7.67000008  54.15999985
C    14.80000019   7.25000000  54.09000015
C    24.69000053   8.11999989  53.44999695
H    25.03842163   8.48264503  54.41704941
H    20.17999840   7.26000023  55.66999817
H    18.90999985   9.31999969  51.38999939
H    21.17000198   9.72000027  50.81999969
H    23.59000015   9.06000042  51.14999771
H    22.47999954   7.44000006  55.02999878
H    14.42999935   6.76999998  54.99000168
H    25.30999947   8.59000015  52.67000198
H    24.97999954   7.07000017  53.31999969
