96

S    16.28999901  12.43000031  58.46000290
C    18.97999954  12.35000038  57.77999878
C    17.69000053  12.01000023  57.44999695
C    17.35999870  11.36999989  56.20999908
C    18.40999985  11.13999939  55.34999847
C    19.76000023  11.46999931  55.63999939
C    20.75000000  11.18999958  54.65000153
C    21.98999786  11.75000000  54.81999969
C    22.30999947  12.35000038  56.06999969
C    21.37000084  12.64999962  57.02999878
C    20.05000114  12.15000057  56.86999893
C    15.92000008  11.46000004  56.00000000
C    15.22999954  12.07999992  57.06999969
C    13.83999920  12.20000076  57.08000183
C    23.75000000  12.76000023  56.27999878
H    24.25478363  12.04903793  56.93408203
H    19.11000061  12.90999985  58.69999695
H    18.18000031  10.77000046  54.36000061
H    20.43000031  10.77000046  53.69999695
H    22.67000008  11.76000023  53.97999573
H    21.63999939  13.21000004  57.91999817
H    13.30999947  12.32999992  58.02000046
H    24.23999977  12.71999931  55.30000305
H    23.75000000  13.80000019  56.63000107
S    12.86000061  10.71000004  53.52000427
C    10.13000011  10.69000053  54.20999908
C    11.42000008  11.10000038  54.47000122
C    11.71000004  11.72999954  55.72999954
C    10.72000027  11.97000027  56.65999985
C     9.40999985  11.50000000  56.39999771
C     8.38999939  11.61000061  57.38999939
C     7.11000013  11.13000011  57.18999863
C     6.78999996  10.55999947  55.93999863
C     7.73000002  10.48999977  54.93999863
C     9.09000015  10.86999989  55.14999771
C    13.14000034  11.84999943  55.91999817
C    13.88000011  11.39999962  54.79999924
C    15.25000000  11.18000031  54.79999924
C     5.36000013  10.11999989  55.68000031
H     4.86249590  10.65303993  54.86978149
H     9.98999977  10.25000000  53.22000122
H    10.85000038  12.39999962  57.64999771
H     8.50000000  12.15999985  58.31999969
H     6.32999992  11.36000061  57.90999985
H     7.46000004  10.08999920  53.95999908
H    15.69000053  10.80000019  53.88000107
H     4.84000015  10.40999985  56.60999680
H     5.23999977   9.02999973  55.73999786
S    16.86000061  12.77999973  52.28000259
C    19.56999969  12.84999943  51.59000015
C    18.29000092  12.43999958  51.30000305
C    18.00000000  11.87000084  50.01999664
C    19.02000046  11.51999950  49.15999985
C    20.35000038  11.90000057  49.45999908
C    21.45999908  11.54000092  48.62999725
C    22.75000000  11.82999992  49.02999878
C    23.03999901  12.56000042  50.20999908
C    21.97000122  12.97999954  50.97000122
C    20.62999916  12.63000011  50.65999985
C    16.54999924  11.77000046  49.86999893
C    15.78999996  12.23000050  50.97000122
C    14.40000057  12.34000015  50.90999985
C    24.43000031  12.98999977  50.61000061
H    24.88524818  12.44227982  51.43513870
H    19.82999992  13.30999947  52.54000092
H    18.59000015  11.07999992  48.26000214
H    21.17000198  11.13999939  47.67000198
H    23.52999878  11.64000034  48.29999924
H    22.17000008  13.42000008  51.95000076
H    13.92000008  12.79999924  51.77000046
H    25.17999840  12.96000004  49.80999756
H    24.30999947  14.06999969  50.77000046
S    13.42000008  10.72999954  47.44999695
C    10.60999966  11.00000000  47.94000244
C    11.92999935  11.17000008  48.30999756
C    12.27000046  11.85999966  49.51000214
C    11.23999977  12.20000076  50.37000275
C     9.89000034  11.92000008  50.04000092
C     8.85999966  12.03999996  51.00999832
C     7.60999966  11.56000042  50.68000031
C     7.18999958  11.13000011  49.38999939
C     8.19000053  11.00000000  48.44999695
C     9.52000046  11.38000011  48.75999832
C    13.69999981  11.85999966  49.79999924
C    14.47999954  11.32999992  48.74000168
C    15.86999989  11.31000042  48.73000336
C     5.75000000  10.72000027  49.22999954
H     5.21701670  11.35957909  48.52645874
H    10.31999969  10.38000011  47.09000015
H    11.59000015  12.48000050  51.36000061
H     9.06999969  12.43000031  52.01000214
H     6.76000023  11.73999977  51.32999802
H     8.00000000  10.59000015  47.45999908
H    16.54999924  10.98000050  47.95000076
H     5.40999985  10.85999966  50.26000214
H     5.69999981   9.64999962  48.99000168
