96

S    16.56999969  11.90000057  58.62999725
C    19.31999969  12.10999966  58.06999969
C    18.05999947  11.69999981  57.69000244
C    17.75000000  11.26000023  56.36000061
C    18.78000069  11.11999989  55.45000076
C    20.10999870  11.39999962  55.84000015
C    21.18999863  11.18000031  54.93999863
C    22.49000168  11.39999962  55.33000183
C    22.77000046  11.94000053  56.60999680
C    21.75000000  12.10999966  57.51999664
C    20.38999939  11.87000084  57.18000031
C    16.31000137  11.07999992  56.19999695
C    15.48999977  11.40999985  57.30999756
C    14.09999943  11.51999950  57.28000259
C    24.15999985  12.43000031  56.95999908
H    24.69471359  11.68140125  57.54462051
H    19.52000046  12.64999962  58.99000168
H    18.63999939  10.98000050  54.38999939
H    20.95999908  10.90999985  53.90999603
H    23.22999954  11.36000061  54.52999878
H    21.94000053  12.46000099  58.53000259
H    13.55000019  11.84999943  58.15000153
H    24.70999908  12.81999969  56.09000397
H    24.11000061  13.30000019  57.63000107
S    13.12999916  10.25000000  53.69999695
C    10.36000061  10.17000008  54.27000046
C    11.64999962  10.47999954  54.65000153
C    12.01000023  10.97000027  55.94999695
C    10.97000027  11.19999981  56.83000183
C     9.61999989  10.98999977  56.45999908
C     8.60000038  11.09000015  57.43999863
C     7.36000013  10.62000084  57.09999847
C     6.98000002  10.29999924  55.77000046
C     7.94000053  10.31000042  54.78000259
C     9.30000019  10.52000046  55.13999939
C    13.45000076  11.13000011  56.10000229
C    14.25000000  10.77000046  54.98000336
C    15.64000034  10.72999954  55.02999878
C     5.60999966   9.72000027  55.52000046
H     5.19634676  10.32621670  54.71408844
H    10.19999981   9.52999973  53.40999985
H    11.19999981  11.28999901  57.88000107
H     8.89000034  11.36000061  58.46000290
H     6.61999989  10.44000053  57.88000107
H     7.63999987   9.92000008  53.81000137
H    16.32999992  10.43000031  54.25000000
H     4.88999987   9.73999977  56.35000229
H     5.59000015   8.69000053  55.13000107
S    13.89999962   8.42000008  50.56000137
C    11.21000099   7.86000013  51.18999863
C    12.55000019   7.69000006  51.45000076
C    12.90999985   6.98000002  52.63999939
C    11.94000053   6.43000031  53.46000290
C    10.55999947   6.63999987  53.18999863
C     9.55000019   6.28000021  54.12000275
C     8.23999977   6.57999992  53.85000229
C     7.86000013   7.32999992  52.70000076
C     8.80999947   7.75000000  51.79999924
C    10.15999985   7.36000013  52.01000214
C    14.32999992   7.17000008  52.91999817
C    14.98000050   7.86000013  51.86000061
C    16.27000046   8.36000061  51.97000122
C     6.40999985   7.63000011  52.39999771
H     5.94663048   7.08108521  51.58019257
H    10.86999989   8.56000042  50.44000244
H    12.23000050   5.92999983  54.38000107
H     9.88000011   6.07999992  55.13999939
H     7.50999975   6.25999975  54.58000183
H     8.51000023   8.34000015  50.93999863
H    16.73999977   9.02999973  51.25000000
H     5.88999987   7.44999981  53.36000061
H     6.26999950   8.69000053  52.12999725
S    17.56000137   6.72999954  55.34000015
C    20.22000122   7.37999964  54.82999802
C    18.89999962   7.46000004  54.43999863
C    18.46999931   8.17000008  53.27000046
C    19.37999916   8.89000034  52.52999878
C    20.76000023   8.67999935  52.77000046
C    21.80999947   9.01000023  51.86999893
C    23.15000153   8.80000019  52.09999847
C    23.54999924   8.19999981  53.33000183
C    22.56000137   7.72000027  54.15000153
C    21.17000198   7.90999985  53.90999603
C    17.02000046   8.03999996  53.09999847
C    16.39000130   7.27999973  54.10999680
C    15.07999992   6.83000040  54.03999710
C    24.97999954   7.77999973  53.60000229
H    25.30148888   8.11577702  54.58590317
H    20.48999977   6.89000034  55.76000214
H    19.10000038   9.38000011  51.59999847
H    21.48999977   9.35999966  50.89000320
H    23.92999840   9.00000000  51.38000107
H    22.81999969   7.16000032  55.05000305
H    14.60999966   6.21000004  54.80999756
H    25.59000015   8.14000034  52.76000214
H    25.13000107   6.70000029  53.48999786
