96

S    16.60000038  12.48999977  58.54000092
C    19.27999878  12.53000069  57.69000244
C    17.97999954  12.13999939  57.49000168
C    17.61999893  11.64999962  56.18999863
C    18.61999893  11.52999973  55.22999573
C    19.98999977  11.79999924  55.43000031
C    21.02999878  11.69000053  54.45999908
C    22.32000160  11.95000076  54.85000229
C    22.69000053  12.48000050  56.11999893
C    21.67000008  12.56999969  57.04999924
C    20.30999947  12.28999996  56.73999786
C    16.18000031  11.61999893  56.04999924
C    15.51000023  12.10000038  57.19999695
C    14.11999893  12.02999973  57.25000000
C    24.05999947  13.01000023  56.45999908
H    24.71354294  12.31383419  56.98567200
H    19.45999908  12.89999962  58.69999695
H    18.29000092  11.39999962  54.20999908
H    20.86000061  11.31000042  53.46000290
H    23.02000046  11.71000004  54.06000137
H    21.87000084  13.05999947  58.00000000
H    13.67000008  12.17000008  58.22999954
H    24.53000069  13.48000050  55.59000015
H    23.59000015  13.82999992  57.02000046
S    12.98999977  10.88000107  53.64999771
C    10.27999973  10.72999954  54.36999893
C    11.56999969  11.10000038  54.68999863
C    11.90000057  11.51999950  56.02000427
C    10.90000057  11.54999924  56.97000122
C     9.55999947  11.21000099  56.68000031
C     8.46000004  11.31000042  57.58999634
C     7.20000029  10.90000057  57.22999954
C     6.93000031  10.47999954  55.90000153
C     7.96999979  10.26000023  55.02999878
C     9.30000019  10.64000034  55.38999939
C    13.34000015  11.67000008  56.14999771
C    14.07999992  11.26000023  55.00000000
C    15.46000004  11.21999931  54.91000366
C     5.52999973  10.06000042  55.48999786
H     5.07701254  10.78194904  54.81051636
H     9.94000053  10.51000023  53.36000061
H    11.23000050  11.73999977  57.98999786
H     8.64000034  11.64000034  58.61000061
H     6.40999985  10.97000027  57.97000122
H     7.82000017  10.05000019  53.96999741
H    15.98999977  10.72000027  54.09999847
H     5.00999975  10.06000042  56.45999908
H     5.52999973   9.02000046  55.17000198
S    13.55999947   8.97999954  50.63999939
C    10.93999958   8.43000031  51.32999802
C    12.27000046   8.22000027  51.59999847
C    12.71000004   7.72000027  52.87000275
C    11.84000015   7.16000032  53.79000092
C    10.47999954   7.28999996  53.43000031
C     9.50000000   6.70000029  54.27999878
C     8.14999962   6.91999960  54.13000107
C     7.69000006   7.53000021  52.94000244
C     8.57999992   8.01000023  52.01000214
C     9.98000050   7.95000029  52.25000000
C    14.13000011   8.01000023  53.01000214
C    14.75999928   8.53999996  51.86000061
C    16.13000107   8.78999996  51.88000107
C     6.19999981   7.72000027  52.77999878
H     5.79393005   7.40654230  51.81825638
H    10.70000076   8.97000027  50.40999985
H    12.20000076   6.86999989  54.78000259
H     9.81000042   6.17000008  55.18000031
H     7.44000006   6.44000006  54.80999756
H     8.14999962   8.61999989  51.20999908
H    16.67000008   9.15000057  51.00999832
H     5.51999998   7.17000008  53.43999863
H     5.98000002   8.78999996  52.87000275
S    17.47999954   7.53999996  55.37000275
C    20.17999840   7.97999954  54.62999725
C    18.84000015   8.05000019  54.34999847
C    18.32999992   8.73999977  53.20000076
C    19.23999977   9.17000008  52.25000000
C    20.62999916   9.07999992  52.47000122
C    21.60000038   9.39000034  51.47999573
C    22.95999908   9.26999950  51.68000031
C    23.45999908   8.67999935  52.87000275
C    22.52000046   8.26000023  53.79000092
C    21.11999893   8.48999977  53.68999863
C    16.90000153   8.56999969  53.02999878
C    16.27000046   7.96000004  54.15000153
C    14.91000080   7.67000008  54.13000107
C    24.94999886   8.69000053  53.11000061
H    25.21327972   8.26305962  54.07773209
H    20.55000114   7.39000034  55.45999908
H    18.68000031   9.44000053  51.35000229
H    21.12999916  10.00000000  50.70999908
H    23.77000046   9.56999969  51.02000427
H    22.79000092   7.86000013  54.75999832
H    14.40999985   7.00000000  54.81999969
H    25.36999893   9.67000008  52.88999939
H    25.27000046   8.00000000  52.31999969
