96

S    17.20999908  12.22000027  58.57999802
C    19.89999962  12.25000000  57.77999878
C    18.57999992  11.98999977  57.49000168
C    18.22999954  11.47999954  56.18999863
C    19.15999985  11.39999962  55.17000198
C    20.45000076  11.90000057  55.43000031
C    21.55999947  11.64999962  54.56999969
C    22.86999893  11.84999943  54.93000031
C    23.15999985  12.63000011  56.07999802
C    22.13999939  12.88000011  56.97000122
C    20.81999969  12.42000008  56.72000122
C    16.77999878  11.46000004  56.11000061
C    16.06999969  11.72999954  57.30999756
C    14.68000031  11.80999947  57.29999924
C    24.54000092  12.97999954  56.59000015
H    25.05058098  12.20703697  57.16440201
H    20.29000092  12.48999977  58.76999664
H    18.97999954  10.81999969  54.27000046
H    21.42000008  11.06999969  53.66000366
H    23.69999886  11.38000011  54.40000153
H    22.39000130  13.36999989  57.90000153
H    14.15999985  12.23000050  58.15999985
H    25.20999908  13.30999947  55.79000092
H    24.40999985  13.89999962  57.15999985
S    13.50000000  10.76000023  53.74000168
C    10.75000000  10.72999954  54.36999893
C    12.05000019  10.93999958  54.75000000
C    12.44999981  11.39000034  56.04999924
C    11.44999981  11.61000061  56.97999954
C    10.11000061  11.33999920  56.60999680
C     9.11999989  11.38000011  57.63999939
C     7.81000042  11.11999989  57.34000397
C     7.36000013  10.88999939  56.00999832
C     8.31999969  10.78999996  55.01999664
C     9.71000004  10.84000015  55.31999969
C    13.89999962  11.47999954  56.18999863
C    14.65000057  11.11999989  55.04000092
C    16.03999901  11.06999969  54.99000168
C     5.92999983  10.57000065  55.63000107
H     5.53872156  11.17470360  54.81187057
H    10.59999943  10.36999893  53.34999847
H    11.71000004  11.96000004  57.97000122
H     9.44999981  11.72999954  58.61000061
H     6.98999977  11.26999950  58.04000092
H     8.02999973  10.65000057  53.97999573
H    16.51000023  10.88000107  54.02999878
H     5.23999977  10.64000034  56.46999741
H     5.92999983   9.55999947  55.20000076
S    13.60000038   8.47999954  50.70000076
C    10.95999908   8.18000031  51.37000275
C    12.25999928   7.96999979  51.75000000
C    12.71000004   7.42999983  53.00000000
C    11.67000008   7.00999975  53.81999969
C    10.31000042   7.09999990  53.44999695
C     9.26000023   6.84999990  54.36999893
C     7.94000053   7.09000015  54.06000137
C     7.57000017   7.72000027  52.84000015
C     8.55000019   8.10999966  51.95999908
C     9.90999985   7.81000042  52.25999832
C    14.15999985   7.46000004  53.06999969
C    14.78000069   8.13000011  51.97999954
C    16.13000107   8.43999958  51.95999908
C     6.11000013   8.02999973  52.57999802
H     5.78969097   7.52462387  51.66889954
H    10.85999966   8.63000011  50.38999939
H    11.87000084   6.61999989  54.80999756
H     9.56999969   6.61000013  55.38000107
H     7.18999958   6.98000002  54.84000397
H     8.30999947   8.73000050  51.10000229
H    16.55999947   8.98999977  51.12999725
H     5.45000029   7.72000027  53.39000320
H     6.01000023   9.11999989  52.51999664
S    17.51000023   6.90000010  55.38999939
C    20.17999840   7.53000021  54.69999695
C    18.84000015   7.50999975  54.38999939
C    18.37000084   8.15999985  53.20000076
C    19.27000046   8.53999996  52.22000122
C    20.65999985   8.53999996  52.50999832
C    21.63000107   9.10000038  51.63000107
C    22.98999977   9.02999973  51.83000183
C    23.44000053   8.59000015  53.11000061
C    22.52000046   8.18000031  54.03999710
C    21.11999893   8.09000015  53.79000092
C    16.94000053   8.00000000  53.02000046
C    16.34000015   7.44999981  54.18000031
C    14.96999931   7.20000029  54.18000031
C    24.87999916   8.19999981  53.36999893
H    25.40089989   8.81366253  54.10496902
H    20.50000000   6.97000027  55.56999969
H    18.82999992   8.92000008  51.31000137
H    21.25000000   9.55999947  50.72000122
H    23.68000031   9.19999981  51.00999832
H    22.81999969   7.64999962  54.93999863
H    14.61999989   6.88000011  55.15999603
H    25.38000107   8.36999989  52.41000366
H    24.80999947   7.11000013  53.48999786
