96

S    17.02999878  11.96000004  58.48999786
C    19.70999908  12.13000107  57.69000244
C    18.40999985  11.78999996  57.38999939
C    18.04000092  11.26999950  56.11000061
C    19.04999924  11.11999989  55.17000198
C    20.38999939  11.50000000  55.45000076
C    21.47000122  11.33999920  54.52999878
C    22.75000000  11.72999954  54.85000229
C    23.12000084  12.20999908  56.13999939
C    22.10000038  12.34000015  57.05999756
C    20.76000023  11.97000027  56.76000214
C    16.61000061  11.03999996  56.00000000
C    15.93999958  11.51999950  57.15000153
C    14.55999947  11.72000027  57.22999954
C    24.56000137  12.55000019  56.46999741
H    24.90821648  11.98859215  57.33698654
H    19.98999977  12.71999931  58.55999756
H    18.86999893  10.81999969  54.13999939
H    21.37000084  10.76000023  53.61999893
H    23.52000046  11.59999943  54.09999847
H    22.32000160  12.69000053  58.06000137
H    14.22000027  12.02999973  58.20999908
H    25.15999985  12.48999977  55.56000137
H    24.64999962  13.60999966  56.73999786
S    13.35999966  10.98999977  53.54000092
C    10.65000057  11.10000038  54.15999985
C    11.94000053  11.36999989  54.54000092
C    12.30999947  11.65999985  55.89000320
C    11.28000069  11.90000057  56.77999878
C     9.92000008  11.69999981  56.43000031
C     8.85999966  11.73999977  57.37999725
C     7.57000017  11.42000008  57.04999924
C     7.31999969  10.90000057  55.75000000
C     8.30000019  10.80000019  54.78000259
C     9.59999943  11.28999901  55.08999634
C    13.73999977  11.54000092  56.11000061
C    14.42000008  11.05999947  54.95999908
C    15.78999996  10.80999947  54.88999939
C     5.95000029  10.40999985  55.37000275
H     5.57843018  11.03166485  54.55540466
H    10.39000034  10.54999924  53.26000214
H    11.57999992  11.98999977  57.81999969
H     9.04999924  12.23000050  58.34000015
H     6.81999969  11.43000031  57.84000015
H     8.01000023  10.31000042  53.85000229
H    16.36000061  10.62999916  53.97999573
H     5.19999981  10.62000084  56.14999771
H     5.82999992   9.35000038  55.11000061
S    17.32999992  12.60000038  52.44999695
C    20.02000046  12.61999989  51.72999954
C    18.72999954  12.23999977  51.42000198
C    18.36000061  11.64999962  50.17000198
C    19.32999992  11.47999954  49.19000244
C    20.69000053  11.73999977  49.48999786
C    21.73999977  11.44000053  48.56999969
C    23.08000183  11.67000008  48.79000092
C    23.36000061  12.39999962  49.97000122
C    22.37999916  12.69999981  50.89000320
C    21.00000000  12.38000011  50.73999786
C    16.92000008  11.73999977  49.99000168
C    16.22999954  12.28999996  51.10000229
C    14.85000038  12.46000099  51.13999939
C    24.80999947  12.69999981  50.30000305
H    25.27445412  12.11407185  51.09314346
H    20.35000038  13.19000053  52.60000229
H    19.04000092  11.14999962  48.20000076
H    21.47000122  10.90000057  47.67000198
H    23.85000038  11.47999954  48.04999924
H    22.62000084  13.14000034  51.84999847
H    14.32000065  12.84999943  52.00000000
H    25.43000031  12.57999992  49.40000153
H    24.89999962  13.76999950  50.54000092
S    13.61999989  11.43000031  47.54000092
C    10.90999985  11.33999920  48.27000046
C    12.20999908  11.68000031  48.59000397
C    12.57999992  12.13999939  49.88999939
C    11.57999992  12.27000046  50.84000015
C    10.22999954  11.98999977  50.52999878
C     9.17000008  12.30000019  51.44000244
C     7.85000038  12.28999996  51.07999802
C     7.50999975  11.61999893  49.86999893
C     8.48999977  11.31000042  48.95000076
C     9.86999989  11.50000000  49.22999954
C    14.02999973  12.15000057  50.04000092
C    14.73000050  11.72999954  48.88000107
C    16.10000038  11.49000072  48.88999939
C     6.03999996  11.44000053  49.56999969
H     5.69995832  11.80129528  48.59946442
H    10.67000008  11.07999992  47.23999786
H    11.82000065  12.69000053  51.81000137
H     9.46000004  12.57999992  52.44999695
H     7.03999996  12.69999981  51.68000031
H     8.03999996  10.93999958  48.02999878
H    16.60000038  11.13000011  47.98999786
H     5.47999954  11.92000008  50.37000275
H     5.88999987  10.36000061  49.65000153
