96

S    16.67000008  12.31999969  58.61999893
C    19.40000153  12.35000038  57.94000244
C    18.09999847  12.02999973  57.61000061
C    17.73999977  11.51999950  56.31999969
C    18.78999901  11.26000023  55.45999908
C    20.15000153  11.46000004  55.80999756
C    21.21000099  11.31999969  54.86999893
C    22.52000046  11.64000034  55.15999603
C    22.82999992  12.17000008  56.44000244
C    21.84000015  12.30999947  57.38999939
C    20.48000145  12.09000015  57.05999756
C    16.29999924  11.51999950  56.11999893
C    15.57999992  11.82999992  57.29999924
C    14.19999981  12.05999947  57.29999924
C    24.28999901  12.39999962  56.75000000
H    24.64441872  11.76913357  57.56516647
H    19.70999908  12.76999950  58.89999771
H    18.55999947  11.00000000  54.43000031
H    20.90999985  10.98999977  53.88000107
H    23.26999855  11.47999954  54.40000153
H    22.07999992  12.56999969  58.41999817
H    13.71999931  12.38000011  58.22000122
H    24.93000031  12.17000008  55.89000320
H    24.43000031  13.45999908  56.97999954
S    13.09000015  10.84000015  53.72000122
C    10.36999893  10.57000065  54.41999817
C    11.64000034  11.00999928  54.72000122
C    12.05000019  11.46999931  56.02000427
C    11.06999969  11.61000061  56.97000122
C     9.72999954  11.30000019  56.60999680
C     8.67000008  11.52999973  57.52999878
C     7.36000013  11.19999981  57.25000000
C     7.03999996  10.42000008  56.11000061
C     7.99000025  10.29999924  55.12000275
C     9.31999969  10.75000000  55.34999847
C    13.48999977  11.64999962  56.17000198
C    14.22000027  11.23000050  55.02999878
C    15.60999966  11.18999958  54.94999695
C     5.65000010   9.86999989  55.90000153
H     5.18088627  10.36043739  55.04706192
H    10.15999985   9.94000053  53.55999756
H    11.21000099  12.05000019  57.95999908
H     8.86999989  11.92000008  58.52000427
H     6.61999989  11.38000011  58.02999878
H     7.82000017   9.70000076  54.22999954
H    16.07999992  10.62999916  54.15000153
H     5.01999950  10.01000023  56.79000092
H     5.64000034   8.82000065  55.59000015
S    13.53999996   8.88000011  50.93999863
C    10.88999939   8.25000000  51.50000000
C    12.20999908   8.15999985  51.88000107
C    12.69000053   7.60999966  53.11000061
C    11.77000046   7.03000021  53.96999741
C    10.39000034   7.13000011  53.66000366
C     9.39000034   6.71000004  54.58000183
C     8.07999992   6.57999992  54.20000076
C     7.64999962   7.32999992  53.06999969
C     8.56000042   7.92999983  52.22999954
C     9.96000004   7.69000006  52.41000366
C    14.11999893   7.83999968  53.23999786
C    14.77000046   8.48999977  52.15999985
C    16.13000107   8.69999981  52.00000000
C     6.17999983   7.53000021  52.78999710
H     5.83193207   7.09669065  51.85234451
H    10.50000000   8.82000065  50.65999985
H    12.07999992   6.70000029  54.95999908
H     9.64999962   6.44000006  55.59999847
H     7.46999979   5.98999977  54.87999725
H     8.34000015   8.48999977  51.32999802
H    16.61999893   9.04999924  51.10000229
H     5.51999998   7.22000027  53.61999893
H     5.95000029   8.60000038  52.77000046
S    17.47999954   7.25000000  55.48999786
C    20.13999939   7.68000031  54.84000397
C    18.81999969   7.76999998  54.45000076
C    18.36000061   8.34000015  53.22999954
C    19.27999878   8.92000008  52.36999893
C    20.65999985   8.90999985  52.69000244
C    21.65999985   9.31999969  51.77000046
C    22.98999977   9.19000053  52.11999893
C    23.34000015   8.78000069  53.43999863
C    22.39999962   8.34000015  54.34000015
C    21.02999878   8.34999943  53.95999908
C    16.90999985   8.31999969  53.09999847
C    16.29999924   7.79999971  54.27999878
C    14.93000031   7.57999992  54.34999847
C    24.80999947   8.47000027  53.64999771
H    25.12393951   8.74826431  54.65603638
H    20.52999878   7.20000029  55.72999954
H    19.02000046   9.55000019  51.52000046
H    21.37000084   9.70000076  50.79999924
H    23.68999863   9.30000019  51.31000137
H    22.60000038   7.71000004  55.20000076
H    14.55999947   7.13999987  55.27000046
H    25.34000015   9.02000046  52.87000275
H    24.82999992   7.37999964  53.52000427
