96

S    17.13999939  12.23000050  58.81999969
C    19.81999969  12.58999920  58.01000214
C    18.52000046  12.25000000  57.70000076
C    18.12000084  11.78999996  56.40999603
C    19.06999969  11.77000046  55.40999985
C    20.40999985  12.17000008  55.65999985
C    21.45000076  12.02000046  54.69999695
C    22.77000046  12.31999969  54.94999695
C    23.09000015  12.94999981  56.18000031
C    22.13000107  13.01000023  57.16999817
C    20.79000092  12.58999920  56.97999954
C    16.69000053  11.49000072  56.35000229
C    15.98999977  11.84999943  57.51999664
C    14.60999966  11.95000076  57.55000305
C    24.47999954  13.47000027  56.44000244
H    24.94947433  12.82980728  57.18689346
H    20.00000000  13.02000046  58.99000168
H    18.78000069  11.64000034  54.36999893
H    21.12999916  11.54999924  53.77999878
H    23.48999977  12.18999958  54.15000153
H    22.34999847  13.45999908  58.13999939
H    14.17000008  12.18000031  58.50999832
H    25.02000046  13.36999989  55.48999786
H    24.47000122  14.46000004  56.90999985
S    13.55999947  10.57000065  53.96999741
C    10.82999992  10.47000027  54.69999695
C    12.13000107  10.85000038  54.97000122
C    12.46000099  11.50000000  56.20999908
C    11.42000008  11.76000023  57.08000183
C    10.08999920  11.30000019  56.93000031
C     9.02000046  11.44999981  57.85999680
C     7.73000002  11.07999992  57.56000137
C     7.46999979  10.51000023  56.27999878
C     8.47000027  10.27999973  55.37000275
C     9.81000042  10.65999985  55.66999817
C    13.89999962  11.57999992  56.38999939
C    14.63000107  11.13000011  55.26000214
C    16.02000046  11.03999996  55.20999908
C     6.05999994  10.05000019  56.00999832
H     5.59025383  10.49839306  55.13456726
H    10.51000023  10.03000069  53.75999832
H    11.65999985  12.18000031  58.06000137
H     9.34000015  11.76000023  58.85000229
H     6.86999989  11.02000046  58.22000122
H     8.23999977   9.77000046  54.43999863
H    16.52000046  10.72000027  54.29999924
H     5.50000000  10.27999973  56.93000031
H     5.98000002   8.96000004  55.96000290
S    13.40999985   8.67000008  50.48999786
C    10.78999996   8.18000031  51.18999863
C    12.11999989   7.97999954  51.50000000
C    12.64999962   7.36000013  52.68000031
C    11.72999954   7.05999947  53.67000198
C    10.34999943   7.27999973  53.44999695
C     9.50000000   6.65999985  54.40999985
C     8.14999962   6.78999996  54.15000153
C     7.62000036   7.51999950  53.04999924
C     8.46000004   7.95000029  52.04999924
C     9.86999989   7.76000023  52.18999863
C    14.06999969   7.62000036  52.85999680
C    14.61999989   8.21000004  51.70000076
C    15.95999908   8.60000038  51.68000031
C     6.19999981   7.13000011  52.72999573
H     5.88044691   7.44245195  51.73583221
H    10.50000000   8.73000050  50.30000305
H    12.07999992   6.46000004  54.51000214
H     9.89999962   5.96000004  55.13999939
H     7.44999981   6.26999950  54.79000092
H     8.05000019   8.26000023  51.10000229
H    16.35000038   9.34000015  51.00000000
H     6.02999973   6.03999996  52.72999573
H     5.47999954   7.48000050  53.47999954
S    17.27000046   7.53000021  55.31999969
C    19.92000008   8.26000023  54.66999817
C    18.57999992   8.19000053  54.33000183
C    18.15000153   8.51000023  53.01000214
C    19.03000069   9.13000011  52.12999725
C    20.38999939   9.30000019  52.47000122
C    21.28999901   9.94999981  51.58000183
C    22.63000107   9.98999977  51.90000153
C    23.11000061   9.27999973  53.04000092
C    22.23999977   8.82000065  54.00000000
C    20.82999992   8.84000015  53.75999832
C    16.73999977   8.23999977  52.78999710
C    16.13999939   7.71000004  53.95999908
C    14.80000019   7.35000038  54.02999878
C    24.60000038   9.02999973  53.06999969
H    24.98500252   8.85888767  54.07528305
H    20.19000053   7.81000042  55.61999893
H    18.54999924   9.55999947  51.25999832
H    20.93000031  10.17000008  50.58000183
H    23.39999962  10.44999981  51.29000092
H    22.55000114   8.14999962  54.79000092
H    14.45000076   6.76000023  54.86999893
H    25.00999832   9.90999985  52.56000137
H    24.92000198   8.19999981  52.44999695
