96

S    16.61000061  12.22000027  58.47000122
C    19.25000000  12.32999992  57.85999680
C    18.01000023  11.92000008  57.43000031
C    17.70000076  11.36999989  56.13999939
C    18.76000023  11.21000099  55.27000046
C    20.05000114  11.59999943  55.68999863
C    21.14999962  11.39999962  54.80999756
C    22.42000198  11.64999962  55.26000214
C    22.70000076  12.32999992  56.46999741
C    21.64999962  12.64999962  57.30999756
C    20.34000015  12.22000027  56.95999908
C    16.26000023  11.23000050  56.03000259
C    15.53999996  11.69000053  57.15999985
C    14.15999985  11.87000084  57.16999817
C    24.09000015  12.69999981  56.93000031
H    24.59434319  11.93993282  57.52668762
H    19.47000122  12.72999954  58.83999634
H    18.60000038  10.72999954  54.29999924
H    21.09000015  10.88999939  53.85000229
H    23.28000069  11.35000038  54.66999817
H    21.75000000  13.25000000  58.20999908
H    13.61999989  12.10999966  58.08000183
H    24.67000008  12.97000027  56.03000259
H    23.98999977  13.57999992  57.57999802
S    13.09000015  10.75000000  53.54000092
C    10.31999969  10.80999947  54.20999908
C    11.64999962  10.98999977  54.54999924
C    12.02000046  11.39999962  55.86999893
C    11.07999992  11.52999973  56.86999893
C     9.72000027  11.36999989  56.52000046
C     8.71000004  11.46999931  57.51999664
C     7.39000034  11.28999901  57.19999695
C     7.02000046  10.92000008  55.87999725
C     7.94000053  10.80000019  54.86999893
C     9.30999947  11.02000046  55.18000031
C    13.45999908  11.52999973  56.00000000
C    14.19999981  11.25000000  54.82999802
C    15.55999947  10.95000076  54.85000229
C     5.56999969  10.55999947  55.65000153
H     5.12127256  10.93750095  54.73117828
H    10.06000042  10.36999893  53.25000000
H    11.35000038  11.56999969  57.93000031
H     8.97999954  11.64999962  58.55999756
H     6.53999996  11.44999981  57.85999680
H     7.71000004  10.52999973  53.83999634
H    16.04999924  10.50000000  53.99000168
H     5.00000000  10.98000050  56.49000168
H     5.49000025   9.47000027  55.73999786
S    17.18000031  12.72999954  52.50000000
C    19.93999863  12.79000092  51.86000061
C    18.63999939  12.51000023  51.51000214
C    18.22999954  12.13000107  50.19000244
C    19.25000000  11.97999954  49.26000214
C    20.56999969  12.38999939  49.55999756
C    21.61000061  12.30999947  48.57999802
C    22.92000008  12.63000011  48.83999634
C    23.29000092  13.14000034  50.11000061
C    22.32000160  13.21000004  51.09000397
C    20.95000076  12.86000061  50.86000061
C    16.79999924  11.98999977  49.98000336
C    16.09000015  12.35999966  51.14999771
C    14.70999908  12.48999977  51.18999863
C    24.72999954  13.43999958  50.45000076
H    25.12888718  12.84167004  51.26914215
H    20.20000076  13.23999977  52.81000137
H    18.95000076  11.54000092  48.31999969
H    21.25000000  11.84999943  47.67000198
H    23.65999985  12.27000046  48.13000107
H    22.60999870  13.38999939  52.11999893
H    14.15999985  12.61000061  52.11999893
H    25.26000023  13.32999992  49.48999786
H    24.84999847  14.48999977  50.72000122
S    13.61999989  11.23999977  47.56999969
C    10.92000008  11.06999969  48.30999756
C    12.20000076  11.49000072  48.61000061
C    12.53999901  12.06999969  49.86999893
C    11.49000072  12.18000031  50.77000046
C    10.15999985  11.72999954  50.58000183
C     9.02999973  11.92000008  51.40999603
C     7.76000023  11.51999950  51.04999924
C     7.55999994  10.82999992  49.81999969
C     8.59000015  10.71000004  48.93000031
C     9.89999962  11.16000080  49.27999878
C    13.97999954  12.20000076  50.02999878
C    14.68999958  11.87000084  48.83999634
C    16.05999947  11.64999962  48.83999634
C     6.15999985  10.36000061  49.50000000
H     5.74057674  10.85762024  48.62561035
H    10.67999935  10.43000031  47.47000122
H    11.63000011  12.61000061  51.76000214
H     9.18000031  12.36999989  52.38999939
H     6.91999960  11.84999943  51.65000153
H     8.45000076  10.36999893  47.90000153
H    16.54999924  11.39000034  47.90000153
H     5.56999969  10.53999996  50.40999985
H     6.09000015   9.27999973  49.29000092
