96

S    16.36999893  12.46999931  58.68999863
C    19.12999916  12.35999966  58.13999939
C    17.82999992  12.10999966  57.76000214
C    17.51000023  11.61999893  56.45000076
C    18.55999947  11.36999989  55.59000015
C    19.88999939  11.76000023  55.90000153
C    20.94000053  11.76000023  54.93999863
C    22.25000000  12.05000019  55.25000000
C    22.50000000  12.51000023  56.56999969
C    21.54000092  12.63000011  57.54000092
C    20.20000076  12.25000000  57.21000290
C    16.07999992  11.61000061  56.16000366
C    15.34999943  12.01000023  57.30999756
C    13.96999931  12.10999966  57.28000259
C    23.95000076  12.82999992  56.86999893
H    24.41862679  12.12705994  57.55873871
H    19.37000084  12.76999950  59.12000275
H    18.38000107  10.95000076  54.61000061
H    20.69999886  11.59000015  53.88999939
H    22.96999931  11.92000008  54.43999863
H    21.76000214  12.96000004  58.54999924
H    13.50000000  12.43000031  58.20000076
H    24.53000069  13.12999916  55.98999786
H    23.88999939  13.78000069  57.41000366
S    12.98999977  10.67999935  53.72000122
C    10.26000023  10.75000000  54.13999939
C    11.51000023  11.11999989  54.59999847
C    11.78999996  11.64000034  55.90000153
C    10.67999935  11.82999992  56.70000076
C     9.38000011  11.43000031  56.30000305
C     8.25000000  11.64999962  57.14000320
C     7.03999996  11.14999962  56.72000122
C     6.80999994  10.44999981  55.50000000
C     7.86000013  10.38000011  54.61999893
C     9.15000057  10.82999992  55.00999832
C    13.22000027  11.75000000  56.13999939
C    13.99000072  11.28999901  55.04000092
C    15.38000011  11.23000050  55.00999832
C     5.51999998   9.68999958  55.27999878
H     4.98904371  10.28467083  54.53665924
H    10.03999901  10.36000061  53.15000153
H    10.69000053  12.18999958  57.71999741
H     8.46000004  12.10000038  58.11000061
H     6.17000008  11.31000042  57.34000397
H     7.78999996   9.85999966  53.66000366
H    15.93000031  10.72999954  54.22000122
H     4.97000027   9.44000053  56.19999695
H     5.82999992   8.76999950  54.77000427
S    13.10999966   8.80999947  50.73999786
C    10.47999954   8.11999989  51.32999802
C    11.79999924   8.11999989  51.72000122
C    12.20000076   7.51999950  52.95000076
C    11.23999977   6.98000002  53.80000305
C     9.88000011   6.96000004  53.40999985
C     8.82000065   6.34999990  54.13999939
C     7.53000021   6.52999973  53.70999908
C     7.13000011   7.26999998  52.56999969
C     8.13000011   7.81000042  51.79000092
C     9.48000050   7.57000017  52.16999817
C    13.64999962   7.55000019  53.00000000
C    14.28999996   8.23999977  51.93999863
C    15.64000034   8.55000019  51.91999817
C     5.68000031   7.26999998  52.15999985
H     5.46709156   6.50352907  51.41482162
H    10.21999931   8.50000000  50.34000015
H    11.42000008   6.80999994  54.86000061
H     8.98999977   5.80999947  55.06999969
H     6.69000053   5.98000002  54.15000153
H     8.06999969   8.15999985  50.76000214
H    16.03000069   9.15999985  51.11000061
H     5.14999962   7.00000000  53.08000183
H     5.32000017   8.25000000  51.79999924
S    16.90999985   6.89000034  55.31999969
C    19.57999992   7.69999981  54.85000229
C    18.26000023   7.64999962  54.45999908
C    17.81999969   8.23000050  53.22000122
C    18.75000000   8.88000011  52.42000198
C    20.09000015   9.00000000  52.84000015
C    21.18999863   9.51000023  52.08000183
C    22.53000069   9.35000038  52.32999802
C    22.86999893   8.57999992  53.47999954
C    21.90999985   8.18000031  54.38000107
C    20.53999901   8.39999962  54.06999969
C    16.40999985   8.01999950  52.97000122
C    15.80000019   7.22000027  53.97999573
C    14.44000053   6.94999981  53.99000168
C    24.26000214   8.01000023  53.66000366
H    24.79849243   8.41386890  54.51733398
H    20.00000000   7.23999977  55.73999786
H    18.46999931   9.09000015  51.38999939
H    20.88000107   9.94999981  51.13999939
H    23.26000023   9.59999943  51.56999969
H    22.13000107   7.53999996  55.24000168
H    14.00000000   6.34999990  54.78000259
H    24.79000092   8.28999996  52.74000168
H    24.10000038   6.93000031  53.68000031
