96

S    16.67000008  12.31999969  58.61999893
C    19.40000153  12.35000038  57.94000244
C    18.09999847  12.02999973  57.61000061
C    17.73999977  11.51999950  56.31999969
C    18.78999901  11.26000023  55.45999908
C    20.15000153  11.46000004  55.80999756
C    21.21000099  11.31999969  54.86999893
C    22.52000046  11.64000034  55.15999603
C    22.82999992  12.17000008  56.44000244
C    21.84000015  12.30999947  57.38999939
C    20.48000145  12.09000015  57.05999756
C    16.29999924  11.51999950  56.11999893
C    15.57999992  11.82999992  57.29999924
C    14.19999981  12.05999947  57.29999924
C    24.28999901  12.39999962  56.75000000
H    24.64441872  11.76913357  57.56516647
H    19.70999908  12.76999950  58.89999771
H    18.55999947  11.00000000  54.43000031
H    20.90999985  10.98999977  53.88000107
H    23.26999855  11.47999954  54.40000153
H    22.07999992  12.56999969  58.41999817
H    13.71999931  12.38000011  58.22000122
H    24.93000031  12.17000008  55.89000320
H    24.43000031  13.45999908  56.97999954
S    13.09000015  10.84000015  53.72000122
C    10.36999893  10.57000065  54.41999817
C    11.64000034  11.00999928  54.72000122
C    12.05000019  11.46999931  56.02000427
C    11.06999969  11.61000061  56.97000122
C     9.72999954  11.30000019  56.60999680
C     8.67000008  11.52999973  57.52999878
C     7.36000013  11.19999981  57.25000000
C     7.03999996  10.42000008  56.11000061
C     7.99000025  10.29999924  55.12000275
C     9.31999969  10.75000000  55.34999847
C    13.48999977  11.64999962  56.17000198
C    14.22000027  11.23000050  55.02999878
C    15.60999966  11.18999958  54.94999695
C     5.65000010   9.86999989  55.90000153
H     5.18088627  10.36043739  55.04706192
H    10.15999985   9.94000053  53.55999756
H    11.21000099  12.05000019  57.95999908
H     8.86999989  11.92000008  58.52000427
H     6.61999989  11.38000011  58.02999878
H     7.82000017   9.70000076  54.22999954
H    16.07999992  10.62999916  54.15000153
H     5.01999950  10.01000023  56.79000092
H     5.64000034   8.82000065  55.59000015
S    17.35000038  12.61999989  52.48000336
C    20.03000069  12.76000023  51.86000061
C    18.73999977  12.60000038  51.38999939
C    18.38999939  12.28000069  50.04000092
C    19.40000153  12.09000015  49.10999680
C    20.73999786  12.20000076  49.54000092
C    21.84000015  12.13000107  48.62999725
C    23.15999985  12.15999985  49.02000046
C    23.40999985  12.71999931  50.30000305
C    22.39999962  12.89999962  51.22000122
C    21.05999947  12.56999969  50.90000153
C    16.95999908  12.03999996  49.88999939
C    16.27000046  12.31999969  51.10000229
C    14.88000011  12.25999928  51.11999893
C    24.84999847  12.94000053  50.72000122
H    25.12703323  12.37172604  51.60792923
H    20.22000122  13.15999985  52.84999847
H    19.19999886  11.84999943  48.06999969
H    21.48999977  12.07999992  47.61000061
H    23.92000008  11.92999935  48.27999878
H    22.67000008  13.15000057  52.23999786
H    14.39000034  12.35000038  52.08000183
H    25.58000183  12.77999973  49.92000198
H    24.89999962  13.99000072  51.02000427
S    13.75000000  11.51999950  47.39999771
C    11.03999996  11.42000008  48.08000183
C    12.34000015  11.69000053  48.46000290
C    12.67000008  12.02999973  49.80999756
C    11.68000031  12.22000027  50.75000000
C    10.38000011  11.76000023  50.41999817
C     9.32999992  11.68000031  51.37000275
C     8.07999992  11.21999931  51.03000259
C     7.76999998  10.77000046  49.72000122
C     8.76000023  10.78999996  48.76999664
C    10.06000042  11.26999950  49.09999847
C    14.11000061  12.02000046  49.98000336
C    14.82999992  11.72000027  48.79000092
C    16.21999931  11.69000053  48.75000000
C     6.34000015  10.31999969  49.48999786
H     5.88398409  10.96839809  48.74184799
H    10.82999992  11.09000015  47.06999969
H    11.87000084  12.67000008  51.72000122
H     9.59999943  11.92999935  52.38999939
H     7.37999964  11.16000080  51.86000061
H     8.56000042  10.53999996  47.74000168
H    16.72000122  11.44999981  47.81999969
H     5.78999996  10.21999931  50.43000031
H     6.43000031   9.27999973  49.15999985
