96

S    16.88999939  12.38999939  58.48999786
C    19.57999992  12.42000008  57.75000000
C    18.29000092  12.02999973  57.47000122
C    17.89999962  11.36999989  56.25999832
C    18.85000038  11.21999931  55.26000214
C    20.13999939  11.75000000  55.47000122
C    21.14999962  11.59999943  54.47999954
C    22.43999863  12.02999973  54.71000290
C    22.80999947  12.63000011  55.93999863
C    21.87999916  12.79000092  56.93999863
C    20.56999969  12.27000046  56.73999786
C    16.46000099  11.35000038  56.10000229
C    15.76000023  11.87999916  57.21000290
C    14.37000084  11.87999916  57.27000427
C    24.23000145  13.03999996  56.25000000
H    24.65577316  12.43682194  57.05186844
H    19.71999931  12.89999962  58.70999908
H    18.56999969  10.92000008  54.25000000
H    20.84000015  11.10000038  53.55999756
H    23.13999939  12.00000000  53.88999939
H    22.13999939  13.27000046  57.88000107
H    13.86000061  12.35999966  58.09000015
H    24.84000015  12.97000027  55.34000015
H    24.20000076  14.09000015  56.56999969
S    13.32999992  10.53999996  53.62999725
C    10.65999985  10.62999916  54.25000000
C    11.92999935  11.05000019  54.59000015
C    12.23000050  11.51000023  55.91999817
C    11.18000031  11.79999924  56.77000046
C     9.85000038  11.52999973  56.36000061
C     8.75000000  11.72000027  57.25000000
C     7.46000004  11.33999920  56.95999908
C     7.22000027  10.65999985  55.73999786
C     8.23999977  10.43000031  54.84000397
C     9.56999969  10.86999989  55.11000061
C    13.67000008  11.51999950  56.11000061
C    14.35999966  10.97000027  55.00000000
C    15.75000000  10.90000057  54.97000122
C     5.82000017  10.21000004  55.38000107
H     5.30101967  10.94225979  54.76148987
H    10.50000000   9.94000053  53.43000031
H    11.39999962  12.20000076  57.76000214
H     9.07999992  12.17000008  58.18000031
H     6.63999987  11.63000011  57.61000061
H     8.05999947   9.85000038  53.94000244
H    16.34000015  10.44000053  54.18000031
H     5.22000027  10.21999931  56.30000305
H     5.82999992   9.19000053  54.98000336
S    13.48999977   8.75000000  50.73999786
C    10.80000019   8.36000061  51.44000244
C    12.13000107   8.14999962  51.70999908
C    12.56000042   7.48000050  52.90999985
C    11.59000015   7.03000021  53.77999878
C    10.21000004   7.13999987  53.47999954
C     9.22000027   6.61000013  54.36000061
C     7.90999985   6.80999994  54.02000046
C     7.49000025   7.36000013  52.77000046
C     8.43000031   7.86000013  51.90000153
C     9.80000019   7.82000017  52.28000259
C    14.01000023   7.53000021  53.06000137
C    14.63999939   8.17000008  51.95999908
C    15.98999977   8.50000000  51.93000031
C     6.03999996   7.27999973  52.36999893
H     5.71977329   7.69985247  51.41643906
H    10.43000031   8.98999977  50.63000107
H    11.95000076   6.51999998  54.66999817
H     9.48000050   6.03999996  55.25000000
H     7.09000015   6.38000011  54.59000015
H     8.19000053   8.01999950  50.84999847
H    16.44000053   9.00000000  51.07999802
H     5.89999962   6.19000006  52.36000061
H     5.35000038   7.67000008  53.13999939
S    17.26000023   7.21000004  55.48999786
C    19.96999931   7.83999968  54.82999802
C    18.61999893   7.86999989  54.56999969
C    18.20000076   8.23000050  53.25000000
C    19.11999893   8.75000000  52.36000061
C    20.52000046   8.60000038  52.51999664
C    21.51000023   8.89999962  51.53999710
C    22.81999969   8.78999996  51.93999863
C    23.26000023   8.23000050  53.15999985
C    22.29000092   7.90999985  54.09000015
C    20.92000008   8.17000008  53.82999802
C    16.76000023   8.14999962  53.04999924
C    16.13000107   7.53000021  54.15999985
C    14.77000046   7.22000027  54.19000244
C    24.70000076   8.21000004  53.61000061
H    24.93539619   9.05884743  54.25198746
H    20.30999947   7.50000000  55.79999924
H    18.71000099   9.18000031  51.45000076
H    21.25000000   9.43000031  50.63000107
H    23.61000061   9.18000031  51.31000137
H    22.56000137   7.53999996  55.07999802
H    14.27000046   6.72999954  55.01999664
H    25.42000008   8.30000019  52.77999878
H    24.84000015   7.31999969  54.23999786
