96

S    16.95000076  12.35000038  58.34999847
C    19.55000114  12.55000019  57.60000229
C    18.29000092  12.15000057  57.21000290
C    17.92000008  11.69999981  55.90999985
C    18.93000031  11.61999893  54.95999908
C    20.27000046  11.89000034  55.31000137
C    21.38999939  11.82999992  54.43000031
C    22.65000153  12.28999996  54.69999695
C    22.93999863  12.56000042  56.06999969
C    21.91999817  12.64000034  56.98999786
C    20.56999969  12.30000019  56.65999985
C    16.46999931  11.64000034  55.84999847
C    15.80999947  12.13999939  57.00000000
C    14.42999935  12.23000050  57.08000183
C    24.33000183  12.94999981  56.51000214
H    24.63754463  12.31345367  57.33965683
H    19.70000076  13.12000084  58.52000427
H    18.68000031  11.16000080  54.01000214
H    21.30000114  11.51000023  53.39000320
H    23.42000008  12.22000027  53.94000244
H    22.11000061  13.07000065  57.95999908
H    13.97999954  12.43999958  58.04999924
H    25.10999870  12.86999893  55.73999786
H    24.21999931  13.97999954  56.88000107
S    13.15000057  10.97000027  53.52000427
C    10.50000000  10.77000046  54.38999939
C    11.77999973  11.19999981  54.62999725
C    12.20000076  11.75000000  55.89000320
C    11.23000050  11.98999977  56.84999847
C     9.88000011  11.65999985  56.59999847
C     8.78999996  11.87000084  57.50000000
C     7.48000050  11.59000015  57.18000031
C     7.13000011  11.02000046  55.93000031
C     8.17000008  10.62999916  55.11000061
C     9.52000046  10.95000076  55.40000153
C    13.64999962  11.79999924  56.00000000
C    14.28999996  11.30000019  54.84000397
C    15.67999935  11.19999981  54.78000259
C     5.69000006  10.65999985  55.65999985
H     5.26297760  11.22936344  54.83442307
H    10.25000000  10.34000015  53.41999817
H    11.44999981  12.23999977  57.88000107
H     9.07999992  12.11999989  58.50999832
H     6.71000004  11.85999966  57.90000153
H     7.85000038  10.10000038  54.22000122
H    16.04999924  10.78999996  53.83999634
H     5.00999975  10.81999969  56.50000000
H     5.60999966   9.57999992  55.44000244
S    17.02000046  12.97000027  52.22000122
C    19.75000000  12.81999969  51.59999847
C    18.45000076  12.51000023  51.26999664
C    18.09999847  12.03999996  49.97000122
C    19.12999916  11.73999977  49.09000015
C    20.48999977  12.02000046  49.36999893
C    21.63000107  11.79999924  48.54999924
C    22.88999939  12.18999958  48.92000198
C    23.15000153  12.76000023  50.19000244
C    22.10000038  12.97000027  51.05999756
C    20.78000069  12.60000038  50.65999985
C    16.64999962  11.96000004  49.78000259
C    15.95000076  12.46000099  50.90000153
C    14.59000015  12.74000072  50.87999725
C    24.47000122  13.43000031  50.48999786
H    25.02753448  12.69376850  51.06898117
H    19.97999954  13.19000053  52.60000229
H    18.96000099  11.18000031  48.18000031
H    21.47999954  11.31000042  47.58999634
H    23.75999832  12.11999989  48.27999878
H    22.29999924  13.40999985  52.02999878
H    14.04000092  13.04999924  51.77000046
H    24.97999954  13.83999920  49.61000061
H    24.28999901  14.25000000  51.19999695
S    13.43999958  11.23999977  47.35000229
C    10.78999996  11.10999966  48.04000092
C    12.03999996  11.56999969  48.37999725
C    12.38000011  12.15999985  49.64000320
C    11.38000011  12.38999939  50.56999969
C    10.10000038  11.85999966  50.27000046
C     9.11999989  11.85999966  51.30000305
C     7.83999968  11.52999973  50.90999985
C     7.44999981  11.14999962  49.59999847
C     8.43000031  10.90000057  48.68000031
C     9.76000023  11.31000042  48.99000168
C    13.81999969  12.38000011  49.77000427
C    14.47999954  11.72000027  48.69999695
C    15.85999966  11.56000042  48.69999695
C     6.01000023  10.80000019  49.27999878
H     5.59121752  11.26137066  48.38565063
H    10.60999966  10.52999973  47.12999725
H    11.59000015  12.65999985  51.59999847
H     9.42000008  12.31999969  52.23999786
H     7.07000017  11.52999973  51.68000031
H     8.27000046  10.42000008  47.70999908
H    16.36000061  11.21999931  47.78999710
H     5.38000011  11.13999939  50.11000061
H     5.91000032   9.71000004  49.27999878
