96

S    16.60000038  12.43000031  58.43999863
C    19.29999924  12.18000031  57.83000183
C    18.00000000  11.96000004  57.44999695
C    17.61000061  11.39999962  56.18999863
C    18.63999939  11.02000046  55.34000015
C    19.93999863  11.49000072  55.59999847
C    20.95999908  11.40999985  54.61000061
C    22.27000046  11.77000046  54.85000229
C    22.60000038  12.34000015  56.11000061
C    21.68000031  12.44999981  57.12999725
C    20.32999992  12.07999992  56.86000061
C    16.18000031  11.43000031  55.93000031
C    15.53999996  11.92000008  57.09999847
C    14.14999962  11.98999977  57.16999817
C    23.95000076  12.97000027  56.35000229
H    24.43235016  12.38125134  57.13026810
H    19.48999977  12.56000042  58.82999802
H    18.39999962  10.72000027  54.33000183
H    20.66999817  10.97000027  53.66000366
H    23.13999939  11.59999943  54.22000122
H    22.01000023  12.84000015  58.09000015
H    13.63999939  12.35999966  58.04999924
H    24.56000137  13.00000000  55.44000244
H    23.88000107  14.01000023  56.68000031
S    12.89000034  10.47000027  53.69999695
C    10.26000023  10.26000023  54.58000183
C    11.51000023  10.78999996  54.77000427
C    11.94000053  11.39000034  56.00000000
C    10.98999977  11.49000072  57.00000000
C     9.70000076  10.93000031  56.84000015
C     8.67000008  11.13000011  57.81000137
C     7.36000013  10.77999973  57.58999634
C     6.94000006  10.17000008  56.38000107
C     7.90999985   9.96000004  55.43000031
C     9.26000023  10.39999962  55.58000183
C    13.38999939  11.56999969  56.07999802
C    14.02999973  11.14999962  54.87999725
C    15.40999985  11.03000069  54.84000397
C     5.47999954   9.90999985  56.09000397
H     5.12541628  10.49151707  55.23899841
H     9.98000050   9.84000015  53.61999893
H    11.42000008  11.87000084  57.93000031
H     8.76999950  11.72000027  58.72000122
H     6.63999987  10.95000076  58.37999725
H     7.59999990   9.55000019  54.47999954
H    15.93000031  10.60999966  53.97999573
H     4.90000010  10.19999981  56.98999786
H     5.32999992   8.82999992  55.98999786
S    13.81000042   8.78000069  50.76000214
C    11.18999958   7.97999954  51.37000275
C    12.53999901   7.94000053  51.66999817
C    13.04999924   7.34000015  52.85999680
C    12.13999939   6.71999979  53.68999863
C    10.73999977   6.76999998  53.43999863
C     9.77999973   6.28999996  54.38000107
C     8.43000031   6.44999981  54.16999817
C     7.96999979   7.11999989  53.01000214
C     8.85000038   7.53999996  52.04000092
C    10.25000000   7.36000013  52.22999954
C    14.46000004   7.64999962  53.08000183
C    15.03000069   8.34999943  51.97999954
C    16.32999992   8.82000065  52.01000214
C     6.51999998   7.50999975  52.88000107
H     6.00919247   6.89986897  52.13507462
H    10.84000015   8.59000015  50.54999924
H    12.46999931   6.30999994  54.64000320
H    10.13000011   5.95000029  55.35999680
H     7.71000004   6.19000006  54.93999863
H     8.52999973   8.05999947  51.13999939
H    16.72999954   9.43000031  51.19999695
H     6.01000023   7.50000000  53.85000229
H     6.48999977   8.57999992  52.63000107
S    17.79999924   7.22000027  55.37000275
C    20.45999908   7.69999981  54.52999878
C    19.11000061   7.72000027  54.27999878
C    18.63999939   8.32999992  53.06999969
C    19.51000023   8.85999966  52.15000153
C    20.88000107   8.88000011  52.49000168
C    21.83000183   9.55000019  51.65999985
C    23.18000031   9.57999992  51.93000031
C    23.65999985   9.02999973  53.15000153
C    22.79999924   8.46000004  54.06000137
C    21.42000008   8.36000061  53.72000122
C    17.18000031   8.30999947  52.98999786
C    16.61000061   7.75000000  54.15999985
C    15.26000023   7.44000006  54.20999908
C    25.10000038   9.34000015  53.52000427
H    25.49915123   8.76265526  54.35394287
H    20.86999893   7.23999977  55.43000031
H    19.17000008   9.39000034  51.25999832
H    21.40999985  10.03999901  50.79000092
H    23.81000137  10.01000023  51.17000198
H    23.15999985   8.18000031  55.04000092
H    14.89999962   6.85999966  55.05000305
H    25.17000008  10.40999985  53.75000000
H    25.73999786   9.09000015  52.67000198
