96

S    16.46000099  12.05000019  58.59000397
C    19.19000053  11.97000027  57.81999969
C    17.86999893  11.68000031  57.56999969
C    17.46000099  11.09000015  56.32999802
C    18.44000053  10.75000000  55.41999817
C    19.78999901  11.09000015  55.61999893
C    20.82999992  10.98999977  54.65000153
C    22.14999962  11.23999977  54.92000198
C    22.53000069  11.85999966  56.14999771
C    21.55999947  12.02999973  57.11000061
C    20.20000076  11.69000053  56.86000061
C    16.01000023  11.16000080  56.18000031
C    15.29000092  11.63000011  57.30999756
C    13.93000031  11.90000057  57.30999756
C    23.98999977  12.20999908  56.33999634
H    24.51407623  11.60093880  57.07653427
H    19.51000023  12.44999981  58.74000168
H    18.12999916  10.44000053  54.41999817
H    20.43999863  10.53999996  53.73000336
H    22.85000038  11.09000015  54.10999680
H    21.87999916  12.48999977  58.04000092
H    13.36999989  12.28000069  58.15000153
H    24.56000137  12.23999977  55.40999985
H    23.95999908  13.27999973  56.58000183
S    12.77999973  10.75000000  53.68000031
C    10.06999969  10.48999977  54.33000183
C    11.33999920  10.88999939  54.69999695
C    11.71000004  11.43000031  55.97000122
C    10.67000008  11.77999973  56.79999924
C     9.32999992  11.39000034  56.56000137
C     8.32999992  11.46999931  57.56999969
C     7.04999971  11.05000019  57.29999924
C     6.76999998  10.36000061  56.09000397
C     7.76999998  10.14999962  55.17000198
C     9.09000015  10.65999985  55.34000015
C    13.14000034  11.44000053  56.24000168
C    13.83999920  11.10000038  55.06000137
C    15.21999931  10.93000031  55.05000305
C     5.38999987   9.85000038  55.73999786
H     4.89744043  10.37111378  54.91906738
H     9.92999935   9.78999996  53.50999832
H    10.95999908  12.18000031  57.77000046
H     8.52000046  11.89000034  58.55999756
H     6.25000000  11.19999981  58.01000214
H     7.59999990   9.64999962  54.22000122
H    15.75000000  10.47000027  54.22000122
H     4.85000038  10.06000042  56.66999817
H     5.40000010   8.76000023  55.61000061
S    17.15999985  12.56000042  52.75000000
C    19.85999870  12.68000031  52.02000046
C    18.56999969  12.32999992  51.70000076
C    18.22999954  11.82999992  50.40000153
C    19.20999908  11.64000034  49.43999863
C    20.52000046  12.10000038  49.68999863
C    21.54999924  11.84999943  48.74000168
C    22.86000061  12.18000031  48.99000168
C    23.22999954  12.60000038  50.28999710
C    22.23999977  12.76999950  51.23000336
C    20.85000038  12.53999901  51.02000427
C    16.77999878  11.75000000  50.25000000
C    16.07999992  12.18000031  51.39999771
C    14.70000076  12.31999969  51.49000168
C    24.67000008  12.96000004  50.59000015
H    25.04673767  12.44109821  51.47142410
H    20.17000008  13.05999947  52.98999786
H    18.93000031  11.10999966  48.53000259
H    21.24000168  11.54999924  47.75000000
H    23.65999985  12.17000008  48.25000000
H    22.59000015  13.07000065  52.22000122
H    14.17000008  12.75000000  52.34000397
H    25.26000023  12.69999981  49.69999695
H    24.67000008  14.02999973  50.80999756
S    13.60000038  11.26000023  47.78999710
C    10.93000031  11.05000019  48.47999954
C    12.20000076  11.39999962  48.87000275
C    12.55000019  11.84000015  50.19000244
C    11.47999954  12.10999966  51.03000259
C    10.14000034  11.94000053  50.61999893
C     9.06999969  12.00000000  51.56000137
C     7.83999968  11.52999973  51.14999771
C     7.51999950  11.03000069  49.86000061
C     8.56000042  10.85000038  48.97999573
C     9.84000015  11.36000061  49.34000015
C    13.99000072  11.84000015  50.38000107
C    14.67000008  11.50000000  49.18000031
C    16.04999924  11.35000038  49.13000107
C     6.11999989  10.54999924  49.58000183
H     5.61693811  11.01054955  48.72975159
H    10.62999916  10.62999916  47.51999664
H    11.63000011  12.48999977  52.04000092
H     9.22000027  12.48000050  52.51999664
H     7.00999975  11.68000031  51.83000183
H     8.46000004  10.22999954  48.09999847
H    16.46999931  11.05000019  48.16999817
H     5.46999979  10.64000034  50.45999908
H     6.28999996   9.48000050  49.43999863
