96

S    16.86000061  12.35999966  58.61000061
C    19.61000061  12.35999966  57.91999817
C    18.30000114  12.05000019  57.62000275
C    17.94000053  11.61000061  56.31000137
C    18.95000076  11.47999954  55.38999939
C    20.30999947  11.72000027  55.70000076
C    21.37000084  11.49000072  54.78000259
C    22.67999840  11.73999977  55.11000061
C    23.03999901  12.23999977  56.38999939
C    22.04000092  12.46999931  57.30999756
C    20.66999817  12.23999977  56.98999786
C    16.50000000  11.59999943  56.09000397
C    15.78999996  12.01000023  57.25000000
C    14.40000057  12.00000000  57.36000061
C    24.50000000  12.43000031  56.72000122
H    24.82531166  11.70865917  57.46962738
H    19.72999954  12.82999992  58.88999939
H    18.65999985  11.25000000  54.36000061
H    21.11000061  10.85000038  53.93000031
H    23.45000076  11.49000072  54.38999939
H    22.22999954  12.75000000  58.34000015
H    13.89999962  12.35000038  58.26000214
H    25.12000084  12.43999958  55.81999969
H    24.53000069  13.42000008  57.18999863
S    13.20000076  10.80000019  53.79000092
C    10.47000027  10.73999977  54.50000000
C    11.77000046  11.06999969  54.80999756
C    12.18999958  11.52999973  56.10000229
C    11.18999958  11.72999954  57.02999878
C     9.81999969  11.46999931  56.77999878
C     8.71999931  11.77000046  57.63999939
C     7.40999985  11.49000072  57.31999969
C     7.09000015  10.88999939  56.07999802
C     8.13000011  10.52999973  55.25000000
C     9.47000027  10.95999908  55.47999954
C    13.63999939  11.61000061  56.25999832
C    14.32999992  11.32999992  55.05000305
C    15.71000004  11.23000050  54.99000168
C     5.65999985  10.50000000  55.77999878
H     5.22553587  11.15525818  55.02502823
H    10.22999954  10.19000053  53.60000229
H    11.31000042  12.20999908  57.98999786
H     8.86999989  12.25999928  58.59000397
H     6.63000011  11.56000042  58.06999969
H     8.01999950   9.94000053  54.34000015
H    16.25000000  10.81999969  54.13999939
H     4.96000004  10.57000065  56.62000275
H     5.69000006   9.43000031  55.52999878
S    13.59000015   8.89000034  50.80999756
C    10.95999908   8.32999992  51.53999710
C    12.30000019   8.19000053  51.81000137
C    12.74000072   7.51999950  53.00000000
C    11.87000084   6.91999960  53.88999939
C    10.50000000   7.09999990  53.61000061
C     9.53999996   6.57999992  54.52000046
C     8.19000053   6.65999985  54.27000046
C     7.73999977   7.37999964  53.13000107
C     8.61999989   7.86999989  52.19999695
C    10.01999950   7.69999981  52.38999939
C    14.14000034   7.88000011  53.18000031
C    14.73999977   8.63000011  52.14000320
C    16.10000038   8.93000031  52.15999985
C     6.32000017   7.86000013  52.91999817
H     5.90654898   7.58198977  51.95053101
H    10.62000084   8.75000000  50.59999847
H    12.20000076   6.44000006  54.80999756
H     9.86999989   6.00000000  55.38000107
H     7.55000019   6.19000006  55.01999664
H     8.34999943   8.64000034  51.47999573
H    16.51000023   9.56999969  51.38000107
H     5.73999977   7.49000025  53.77999878
H     6.23000050   8.94999981  53.01000214
S    17.39999962   7.13000011  55.45000076
C    20.12000084   7.46999979  54.88999939
C    18.81000137   7.73999977  54.55999756
C    18.37000084   8.47999954  53.40999985
C    19.32999992   8.98999977  52.56000137
C    20.68000031   8.61999989  52.77999878
C    21.67000008   9.18000031  51.91999817
C    22.98000145   8.78999996  52.06999969
C    23.40999985   8.14000034  53.26000214
C    22.49000168   7.76999998  54.22000122
C    21.09999847   7.92999983  53.96999741
C    16.93000031   8.47000027  53.18999863
C    16.28000069   7.73000002  54.20999908
C    14.93000031   7.39000034  54.22999954
C    24.89000130   7.88999987  53.46000290
H    25.21123505   8.09701824  54.48081207
H    20.43999863   6.85999966  55.72000122
H    19.17000008   9.39999962  51.56999969
H    21.35000038   9.85999966  51.12999725
H    23.72999954   9.09000015  51.35000229
H    22.78000069   7.25000000  55.13000107
H    14.52999973   6.74000025  55.00000000
H    25.30999947   8.63000011  52.76000214
H    25.22000122   6.89000034  53.15000153
