96

S    16.34000015  11.95000076  58.23999786
C    19.04000092  12.00000000  57.70000076
C    17.79000092  11.56999969  57.29000092
C    17.52000046  11.00999928  56.00000000
C    18.61999893  10.77999973  55.20999908
C    19.93000031  11.09000015  55.63999939
C    21.04999924  11.02000046  54.77000427
C    22.32999992  11.33999920  55.17000198
C    22.56000137  12.06999969  56.37000275
C    21.45999908  12.31999969  57.15999985
C    20.15999985  11.82999992  56.86000061
C    16.09000015  11.00999928  55.70999908
C    15.38000011  11.61000061  56.79000092
C    14.02999973  11.92000008  56.73999786
C    23.95000076  12.39999962  56.86000061
H    24.45092392  11.67723942  57.50404739
H    19.17000008  12.46999931  58.67000198
H    18.57999992  10.26999950  54.25000000
H    21.01000023  10.59000015  53.76999664
H    23.16999817  11.10999966  54.52000046
H    21.48999977  12.76000023  58.15999985
H    13.55999947  12.30999947  57.63999939
H    24.61999893  12.69999981  56.04000092
H    23.75999832  13.27000046  57.50000000
S    12.79999924  10.29000092  53.31999969
C    10.07999992  10.43000031  54.06000137
C    11.40999985  10.65999985  54.34999847
C    11.84999943  11.18999958  55.61000061
C    10.88000107  11.39999962  56.58000183
C     9.50000000  11.16000080  56.36000061
C     8.52999973  11.31999969  57.38999939
C     7.25000000  10.88000107  57.14000320
C     6.86999989  10.39999962  55.86999893
C     7.76999998  10.21999931  54.85000229
C     9.11999989  10.62999916  55.07999802
C    13.27999973  11.46999931  55.65000153
C    13.93000031  10.77999973  54.59999847
C    15.29999924  10.57000065  54.65000153
C     5.44000053   9.98000050  55.61000061
H     5.03259706  10.53749943  54.76660538
H     9.84000015   9.90999985  53.13999939
H    11.09000015  11.84000015  57.55000305
H     8.90999985  11.67000008  58.34999847
H     6.48999977  11.02000046  57.90000153
H     7.49000025   9.96999931  53.82999802
H    15.73999977  10.06000042  53.79000092
H     4.90000010  10.11999989  56.56000137
H     5.40000010   8.89000034  55.45000076
S    16.61000061  12.50000000  52.23999786
C    19.37999916  12.38000011  51.66999817
C    18.06999969  12.15999985  51.29000092
C    17.65999985  11.72000027  49.99000168
C    18.64999962  11.38000011  49.09999847
C    19.98999977  11.64999962  49.47999954
C    21.04000092  11.44999981  48.54999924
C    22.36000061  11.77999973  48.77999878
C    22.73999977  12.35999966  50.01999664
C    21.76000214  12.67000008  50.93000031
C    20.40999985  12.27000046  50.70999908
C    16.21999931  11.61000061  49.77000427
C    15.52000046  12.00000000  50.93999863
C    14.13000011  12.11999989  50.94999695
C    24.18000031  12.77999973  50.21999741
H    24.62817192  12.29625893  51.08789062
H    19.55999947  12.74000072  52.68000031
H    18.27000046  10.97000027  48.15999985
H    20.76999855  11.00999928  47.58999634
H    23.12000084  11.69999981  48.01000214
H    21.90000153  13.23999977  51.84999847
H    13.76999950  12.48000050  51.90000153
H    24.72999954  12.61999989  49.27999878
H    24.20999908  13.86999989  50.34000015
S    12.97999954  10.52999973  47.51999664
C    10.26999950  10.84000015  48.15000153
C    11.57999992  10.98999977  48.50999832
C    11.96000004  11.59999943  49.75000000
C    11.03999996  11.96000004  50.70999908
C     9.68000031  11.65999985  50.44000244
C     8.57999992  11.92999935  51.30000305
C     7.30000019  11.54000092  50.97999954
C     6.98999977  10.86999989  49.77000427
C     8.01999950  10.59000015  48.88999939
C     9.35000038  10.98999977  49.22000122
C    13.40999985  11.68000031  49.82999802
C    14.11999893  11.11999989  48.74000168
C    15.51000023  11.09000015  48.68000031
C     5.58000040  10.70000076  49.27000046
H     5.22542286  11.48006916  48.59630203
H     9.96000004  10.47999954  47.16999817
H    11.42000008  12.38000011  51.63999939
H     8.84000015  12.38000011  52.25999832
H     6.48999977  11.80999947  51.65000153
H     7.88999987  10.01000023  47.97999954
H    16.03000069  10.60999966  47.85999680
H     4.92000008  10.59999943  50.13999939
H     5.55999994   9.76000023  48.70999908
