96

S    16.54999924  12.13999939  58.46000290
C    19.13999939  12.64000034  57.63999939
C    17.90999985  12.10999966  57.31999969
C    17.56000137  11.63000011  56.02000427
C    18.57999992  11.59000015  55.07999802
C    19.85999870  12.10999966  55.37000275
C    20.93000031  11.90000057  54.45000076
C    22.19000053  12.32999992  54.81999969
C    22.47999954  13.01000023  56.03000259
C    21.42999840  13.27999973  56.86999893
C    20.13000107  12.74000072  56.63000107
C    16.11999893  11.50000000  55.91999817
C    15.43000031  11.82000065  57.11999893
C    14.04000092  11.90999985  57.22000122
C    23.90000153  13.40000057  56.39999771
H    24.30551720  12.70991230  57.13988495
H    19.45000076  12.89000034  58.64999771
H    18.38000107  11.36000061  54.02999878
H    20.72000122  11.23000050  53.61999893
H    22.98999977  12.02000046  54.15999985
H    21.68000031  13.63000011  57.87000275
H    13.52000046  12.18999958  58.13000107
H    24.40999985  13.22999954  55.44000244
H    23.95999908  14.46000004  56.68000031
S    12.88000011  11.28000069  53.50999832
C    10.15999985  11.36999989  54.19000244
C    11.46999931  11.56999969  54.55999756
C    11.80999947  11.77999973  55.93000031
C    10.82999992  11.84000015  56.90000153
C     9.47000027  11.68000031  56.53999710
C     8.39999962  11.57999992  57.48000336
C     7.07999992  11.47999954  57.11000061
C     6.78999996  11.09000015  55.77999878
C     7.78999996  11.10000038  54.84000397
C     9.13000011  11.44000053  55.15999603
C    13.26000023  11.71000004  56.06999969
C    13.99000072  11.40999985  54.88999939
C    15.36000061  11.21000099  54.79000092
C     5.42999983  10.48999977  55.47000122
H     4.86515999  11.10488892  54.76931000
H     9.94000053  11.07999992  53.16999817
H    11.02000046  11.94000053  57.97000122
H     8.64000034  11.67000008  58.53000259
H     6.35999966  11.42000008  57.91999817
H     7.67000008  10.62999916  53.87000275
H    15.82999992  11.10999966  53.81000137
H     4.76000023  10.42000008  56.33999634
H     5.49000025   9.43000031  55.18000031
S    16.70999908  13.12000084  52.15999985
C    19.44000053  12.93000031  51.56999969
C    18.12999916  12.67000008  51.20999908
C    17.73999977  12.10000038  49.94999695
C    18.79999924  11.89000034  49.08000183
C    20.15000153  12.20999908  49.36999893
C    21.25000000  11.94000053  48.50000000
C    22.55000114  12.18000031  48.87000275
C    22.88000107  12.89999962  50.05000305
C    21.86000061  13.01000023  50.97000122
C    20.50000000  12.74000072  50.65000153
C    16.29999924  12.00000000  49.77000427
C    15.60999966  12.57999992  50.86999893
C    14.22999954  12.69000053  50.90000153
C    24.28999901  13.38999939  50.27999878
H    24.71100044  12.84055710  51.12200165
H    19.63000107  13.48999977  52.48000336
H    18.54999924  11.64000034  48.04999924
H    20.93000031  11.47999954  47.56999969
H    23.45999908  11.82999992  48.37999725
H    22.15999985  13.34000015  51.95999908
H    13.61999989  13.07999992  51.72000122
H    24.86999893  13.20000076  49.36999893
H    24.33000183  14.40999985  50.68000031
S    13.07999992  11.23000050  47.42000198
C    10.39000034  11.26999950  48.02999878
C    11.65999985  11.64999962  48.40000153
C    12.05999947  12.20999908  49.65999985
C    11.02000046  12.41000080  50.54000092
C     9.65999985  12.13000107  50.26000214
C     8.57999992  12.25000000  51.18000031
C     7.36000013  11.65999985  50.94999695
C     7.07000017  11.07999992  49.68000031
C     8.06999969  11.03999996  48.73000336
C     9.35999966  11.56999969  48.95999908
C    13.50999928  12.20999908  49.79999924
C    14.22999954  11.77999973  48.66000366
C    15.60999966  11.61000061  48.61999893
C     5.66999960  10.60999966  49.36999893
H     5.15015602  11.32211494  48.72909927
H    10.21999931  10.59999943  47.18999863
H    11.26999950  12.75000000  51.53999710
H     8.85000038  12.69999981  52.12999725
H     6.71000004  11.63000011  51.81000137
H     7.79999971  10.59000015  47.77000046
H    16.03000069  11.21000099  47.70999908
H     5.19999981  10.46000004  50.34999847
H     5.64000034   9.59000015  48.95999908
