96

S    16.79000092  11.90000057  58.37999725
C    19.47999954  12.15000057  57.68000031
C    18.22999954  11.68000031  57.36999893
C    17.92000008  11.14999962  56.06999969
C    18.96000099  11.02000046  55.17000198
C    20.26000023  11.47999954  55.48999786
C    21.34000015  11.33999920  54.58000183
C    22.65000153  11.56999969  54.92000198
C    22.88999939  12.32999992  56.09000397
C    21.87999916  12.51999950  57.01000214
C    20.58000183  11.97999954  56.79999924
C    16.46999931  11.10999966  55.89000320
C    15.72000027  11.46999931  57.02999878
C    14.32999992  11.54999924  57.00000000
C    24.27000046  12.92000008  56.31999969
H    24.73109627  12.37377930  57.14287949
H    19.70000076  12.89999962  58.43000031
H    18.89999962  10.57000065  54.18000031
H    21.07999992  10.90999985  53.61000061
H    23.45000076  11.21000099  54.29000092
H    22.06999969  12.98999977  57.97000122
H    13.80000019  11.87000084  57.88999939
H    24.92000198  12.84999943  55.44000244
H    24.13999939  13.97999954  56.55000305
S    13.22999954  10.18000031  53.47999954
C    10.50000000  10.03999901  54.20000076
C    11.78999996  10.39999962  54.50000000
C    12.18000031  10.95999908  55.76000214
C    11.18000031  11.19999981  56.68000031
C     9.81999969  10.92000008  56.39999771
C     8.84000015  11.06999969  57.42000198
C     7.53999996  10.65999985  57.28000259
C     7.23999977  10.01999950  56.04999924
C     8.14000034   9.81999969  55.01999664
C     9.48000050  10.27999973  55.14999771
C    13.61999989  11.13999939  55.86000061
C    14.37000084  10.71000004  54.73999786
C    15.76000023  10.67999935  54.77000427
C     5.84000015   9.55999947  55.73999786
H     5.39218950  10.16418839  54.95099640
H    10.32999992   9.52999973  53.25000000
H    11.49000072  11.59999943  57.63999939
H     9.25000000  11.49000072  58.34000015
H     6.88000011  10.73999977  58.13999939
H     7.78999996   9.36999989  54.09000015
H    16.31000137  10.31999969  53.90999603
H     5.21000004   9.70000076  56.63000107
H     5.91000032   8.48999977  55.47999954
S    16.97999954  12.61000061  52.44999695
C    19.69000053  12.86999893  51.84000015
C    18.43000031  12.50000000  51.44000244
C    18.07999992  12.15000057  50.10000229
C    19.12999916  11.92000008  49.22999954
C    20.45000076  12.23999977  49.61000061
C    21.51000023  12.09000015  48.67000198
C    22.80999947  12.28999996  49.06000137
C    23.09000015  12.88000011  50.31999969
C    22.11000061  13.07999992  51.25999832
C    20.76999855  12.72999954  50.93000031
C    16.63999939  12.03999996  49.91000366
C    15.88999939  12.34000015  51.06999969
C    14.51000023  12.31999969  51.18000031
C    24.48999786  13.40000057  50.59000015
H    24.97382355  12.78810406  51.35131073
H    19.73999977  13.48999977  52.72999573
H    18.85000038  11.56000042  48.23999786
H    21.31000137  11.73999977  47.65999603
H    23.64000130  12.15999985  48.36999893
H    22.25000000  13.55000019  52.22999954
H    14.00000000  12.64000034  52.09000015
H    25.03999901  13.42000008  49.65000153
H    24.44000053  14.44000053  50.93000031
S    13.50000000  10.77000046  47.70000076
C    10.76000023  10.78999996  48.18999863
C    12.02000046  11.16000080  48.60000229
C    12.30999947  11.69000053  49.89999771
C    11.26000023  11.67000008  50.79999924
C     9.92999935  11.36000061  50.45000076
C     8.89999962  11.26999950  51.42000198
C     7.68000031  10.72999954  51.07999802
C     7.39000034  10.39000034  49.73999786
C     8.39999962  10.36999893  48.80000305
C     9.68000031  10.90999985  49.09999847
C    13.73000050  11.90999985  50.08999634
C    14.51000023  11.46999931  48.99000168
C    15.90000057  11.49000072  48.85000229
C     6.06999969   9.75000000  49.34999847
H     5.52376509  10.40264416  48.66898346
H    10.67999935  10.24000072  47.25999832
H    11.52999973  11.77999973  51.84999847
H     9.07999992  11.54000092  52.45999908
H     6.84000015  10.72999954  51.77000046
H     8.18000031  10.01999950  47.80000305
H    16.31000137  10.85000038  48.08000183
H     5.55000019   9.59000015  50.31000137
H     6.12999964   8.78000069  48.86000061
