96

S    16.86000061  12.20000076  58.23999786
C    19.57999992  12.50000000  57.58999634
C    18.31999969  12.05999947  57.25000000
C    17.95999908  11.56999969  55.94999695
C    19.03000069  11.36999989  55.08999634
C    20.35000038  11.76000023  55.40999985
C    21.45999908  11.61999893  54.52999878
C    22.72000122  12.00000000  54.93999863
C    23.01000214  12.64999962  56.17000198
C    21.94999886  12.86000061  57.02000046
C    20.65999985  12.36999989  56.68000031
C    16.53000069  11.38000011  55.77000046
C    15.77999973  11.64999962  56.93999863
C    14.40000057  11.59999943  57.00000000
C    24.40000153  13.12000084  56.53999710
H    24.86862755  12.53066635  57.32814407
H    19.77000046  12.92000008  58.57999802
H    18.77000046  11.18000031  54.05000305
H    21.22999954  11.31999969  53.50999832
H    23.50000000  11.79999924  54.20999908
H    22.06000137  13.45999908  57.91999817
H    13.86999989  12.09000015  57.81000137
H    25.03000069  13.03999996  55.63999939
H    24.34999847  14.17000008  56.84999847
S    13.26000023  10.72999954  53.39000320
C    10.52000046  10.47999954  54.03999710
C    11.77999973  10.95000076  54.34000015
C    12.17000008  11.38000011  55.65000153
C    11.17000008  11.46999931  56.60999680
C     9.82999992  11.13999939  56.32999802
C     8.80000019  11.30000019  57.30999756
C     7.53000021  10.88999939  56.97000122
C     7.16000032  10.43000031  55.68000031
C     8.15999985  10.26999950  54.75999832
C     9.51000023  10.65999985  55.00999832
C    13.60000038  11.26000023  55.90000153
C    14.37000084  11.07999992  54.72000122
C    15.76000023  11.06999969  54.64000320
C     5.69999981  10.05000019  55.51000214
H     5.37198591  10.58480549  54.61865997
H    10.34999943  10.17000008  53.01000214
H    11.46999931  11.67000008  57.63999939
H     9.06999969  11.54000092  58.33000183
H     6.70000029  11.07999992  57.63000107
H     7.92999983   9.92000008  53.75000000
H    16.28999901  10.90000057  53.70999908
H     5.23000002  10.44000053  56.42000198
H     5.49000025   8.97000027  55.45999908
S    13.22999954   8.69000053  50.65000153
C    10.59999943   8.23999977  51.38000107
C    11.92999935   7.99000025  51.63999939
C    12.48999977   7.36999989  52.81000137
C    11.61999893   6.97000027  53.81000137
C    10.22999954   6.98999977  53.52000427
C     9.30999947   6.61000013  54.54000092
C     7.95000029   6.58999968  54.36999893
C     7.44000006   7.11999989  53.15000153
C     8.31999969   7.78999996  52.34000397
C     9.73999977   7.72000027  52.38999939
C    13.93000031   7.55000019  52.90000153
C    14.50000000   8.21000004  51.79000092
C    15.81999969   8.63000011  51.76000214
C     5.95000029   7.25000000  52.97999954
H     5.65081644   7.07191467  51.94710159
H    10.36999893   8.82000065  50.50000000
H    11.97999954   6.63999987  54.78000259
H     9.61999989   6.40999985  55.56999969
H     7.28999996   6.34999990  55.20000076
H     7.96000004   8.45000076  51.55000305
H    16.31999969   9.11999989  50.91999817
H     5.38999987   6.54999971  53.61000061
H     5.51999998   8.23000050  53.23999786
S    17.28999901   7.32999992  55.24000168
C    19.95000076   7.82999992  54.43999863
C    18.60000038   7.95000029  54.22000122
C    18.04999924   8.53999996  53.02999878
C    18.94000053   9.01000023  52.08000183
C    20.32999992   9.01000023  52.30999756
C    21.28999901   9.48000050  51.37000275
C    22.63999939   9.44000053  51.62000275
C    23.15000153   8.78999996  52.77999878
C    22.26000023   8.21000004  53.66000366
C    20.86000061   8.34000015  53.47000122
C    16.61999893   8.34999943  52.88000107
C    16.10000038   7.57999992  53.95000076
C    14.80000019   7.07999992  53.89999771
C    24.56999969   9.09000015  53.18000031
H    24.92554092   8.62068558  54.09729767
H    20.43000031   7.40000010  55.31999969
H    18.59000015   9.44999981  51.14999771
H    20.89999962  10.10000038  50.56999969
H    23.29999924   9.94000053  50.91999817
H    22.60000038   7.88999987  54.64000320
H    14.34000015   6.50000000  54.68999863
H    24.69000053  10.18000031  53.18000031
H    25.15999985   8.80000019  52.29999924
