96

S    16.38000107  12.11999989  58.52000427
C    19.09000015  12.10999966  57.91999817
C    17.79999924  11.94000053  57.47000122
C    17.43000031  11.61000061  56.11999893
C    18.50000000  11.46000004  55.26000214
C    19.85999870  11.57999992  55.65000153
C    20.90999985  11.49000072  54.68999863
C    22.17000008  11.56999969  55.24000168
C    22.49000168  11.90000057  56.58000183
C    21.48999977  12.03999996  57.51999664
C    20.17000008  11.92999935  57.01000214
C    15.98999977  11.69999981  55.91999817
C    15.29000092  11.97999954  57.11999893
C    13.90999985  12.10999966  57.19999695
C    23.90000153  12.30000019  56.95000076
H    24.43416595  11.50943470  57.47704315
H    19.22000122  12.25000000  58.99000168
H    18.22000122  11.13999939  54.27000046
H    20.62000084  11.39999962  53.64999771
H    22.96999931  11.68000031  54.52000046
H    21.81999969  12.53999901  58.43000031
H    13.42000008  12.17000008  58.16999817
H    24.47999954  12.74000072  56.12999725
H    23.62999916  13.12999916  57.61000061
S    12.74000072  11.32999992  53.48999786
C    10.11999989  10.72999954  54.33000183
C    11.35000038  11.30000019  54.59000015
C    11.71000004  11.68000031  55.91999817
C    10.78999996  11.57999992  56.95999908
C     9.48999977  11.10999966  56.69000244
C     8.42000008  11.17000008  57.63000107
C     7.13000011  10.80999947  57.32999802
C     6.85999966  10.40999985  55.98999786
C     7.82999992  10.24000072  55.04000092
C     9.15000057  10.65000057  55.37000275
C    13.12999916  11.95000076  56.04999924
C    13.82999992  11.56999969  54.86999893
C    15.21000004  11.42000008  54.79000092
C     5.45000029  10.05000019  55.58000183
H     5.12453270  10.60895538  54.70265198
H     9.92999935  10.46000004  53.29999924
H    11.05999947  11.79999924  57.98999786
H     8.60999966  11.82000065  58.47999954
H     6.32000017  11.13999939  57.97000122
H     7.69000006  10.01000023  53.97999573
H    15.67999935  10.95999908  53.93000031
H     4.71000004  10.19000053  56.38000107
H     5.40999985   8.96000004  55.52000046
S    13.09999943   8.97000027  51.03000259
C    10.47999954   8.17000008  51.58000183
C    11.82000065   8.09000015  51.88000107
C    12.27000046   7.46999979  53.09999847
C    11.33999920   7.02000046  54.01000214
C     9.94999981   7.16000032  53.77999878
C     8.98999977   6.65999985  54.69999695
C     7.65999985   6.71999979  54.34999847
C     7.23999977   7.23999977  53.09999847
C     8.14999962   7.82000017  52.25000000
C     9.53999996   7.85000038  52.57999802
C    13.71000099   7.63999987  53.23999786
C    14.28999996   8.47999954  52.25000000
C    15.64000034   8.78999996  52.23999786
C     5.80999947   6.97000027  52.69000244
H     5.42742157   7.50135899  51.81857300
H    10.27999973   8.67000008  50.63000107
H    11.73999977   6.71000004  54.98000336
H     9.31999969   6.01000023  55.50000000
H     7.00000000   6.10000038  54.93999863
H     7.83999968   8.03999996  51.23000336
H    16.02000046   9.42000008  51.44000244
H     5.59999990   5.92999983  52.42000198
H     5.12000036   7.11000013  53.53000259
S    17.04000092   6.98999977  55.54000092
C    19.70999908   7.44999981  54.79000092
C    18.37000084   7.68000031  54.59000015
C    17.87999916   8.38999939  53.44999695
C    18.84000015   8.98999977  52.64999771
C    20.22000122   8.80999947  52.87000275
C    21.21999931   9.48000050  52.09999847
C    22.56000137   9.34000015  52.32999802
C    23.02999878   8.42000008  53.29999924
C    22.11000061   7.75000000  54.06999969
C    20.71000099   7.95000029  53.92000198
C    16.43000031   8.32999992  53.29999924
C    15.85000038   7.57999992  54.36000061
C    14.51000023   7.23000002  54.31999969
C    24.47999954   8.01000023  53.40999985
H    24.97281265   8.35996819  54.31705856
H    20.06999969   6.84999990  55.63000107
H    18.52000046   9.44999981  51.72000122
H    20.85000038  10.11000061  51.29000092
H    23.22000122   9.73999977  51.56000137
H    22.50000000   7.03999996  54.79999924
H    14.01000023   6.71999979  55.13999939
H    24.90999985   8.46000004  52.50999832
H    24.40999985   6.90999985  53.33000183
