96

S    16.57999992  11.89000034  58.47000122
C    19.26000023  12.23000050  57.69000244
C    18.01000023  11.72999954  57.42000198
C    17.63000107  11.19999981  56.13999939
C    18.63000107  11.13000011  55.18000031
C    19.95000076  11.51999950  55.47999954
C    21.09000015  11.28999901  54.66999817
C    22.36999893  11.71000004  54.97000122
C    22.67999840  12.30999947  56.22000122
C    21.63000107  12.53999901  57.06999969
C    20.31999969  12.07999992  56.76000214
C    16.18000031  11.11999989  56.04000092
C    15.43000031  11.46999931  57.18999863
C    14.04999924  11.51000023  57.35000229
C    24.07999992  12.79000092  56.53999710
H    24.47098732  12.21418285  57.37884140
H    19.50000000  12.69999981  58.64999771
H    18.53999901  10.69000053  54.19000244
H    21.02999878  10.93000031  53.63999939
H    23.06999969  11.59999943  54.15000153
H    21.86000061  13.03999996  58.01000214
H    13.57999992  11.82999992  58.27000046
H    24.80999947  12.67000008  55.72999954
H    24.01000023  13.88000011  56.70999908
S    12.97999954  10.69000053  53.60000229
C    10.31000042  10.34999943  54.15999985
C    11.54000092  10.73999977  54.64000320
C    11.90999985  11.05000019  55.98999786
C    10.85000038  11.10000038  56.88000107
C     9.55999947  10.72999954  56.40999603
C     8.51000023  10.73999977  57.36999893
C     7.23000002  10.42000008  57.01000214
C     6.86999989  10.13000011  55.65999985
C     7.86000013  10.10000038  54.71000290
C     9.22000027  10.34999943  55.06999969
C    13.35000038  11.18999958  56.18000031
C    14.06000042  10.93000031  54.98000336
C    15.44000053  10.88000107  54.86999893
C     5.42000008   9.84000015  55.31999969
H     5.08552074  10.23141193  54.35926056
H    10.27999973  10.11000061  53.09999847
H    11.05999947  11.28000069  57.93000031
H     8.69999981  11.09000015  58.37999725
H     6.46000004  10.57000065  57.77000046
H     7.57999992   9.81999969  53.69999695
H    15.88000107  10.67999935  53.89999771
H     4.86000013  10.46000004  56.03000259
H     5.14999962   8.78000069  55.41999817
S    16.95999908  12.48000050  52.35000229
C    19.70000076  12.58999920  51.70999908
C    18.40999985  12.30999947  51.35000229
C    18.06999969  11.94000053  50.00000000
C    19.05999947  11.82000065  49.03999710
C    20.39999962  12.13000107  49.36999893
C    21.48999977  12.18000031  48.44999695
C    22.73999977  12.67000008  48.73000336
C    23.02000046  12.94999981  50.08999634
C    22.04999924  12.86000061  51.05999756
C    20.71000099  12.50000000  50.72000122
C    16.64999962  12.06999969  49.73999786
C    15.90999985  12.25999928  50.93999863
C    14.52000046  12.28000069  50.98999786
C    24.37000084  13.43999958  50.56000137
H    24.81706238  12.87230301  51.37606430
H    19.92000008  12.90999985  52.72999573
H    18.72999954  11.73999977  48.01000214
H    21.24000168  11.96000004  47.41000366
H    23.50000000  12.82999992  47.97999954
H    22.23999977  12.94000053  52.12999725
H    14.02999973  12.61000061  51.90000153
H    25.03999901  13.27000046  49.71000290
H    24.37999916  14.47999954  50.93000031
S    13.55000019  11.46000004  47.19999695
C    10.80000019  11.31999969  47.72999573
C    12.06999969  11.56999969  48.18000031
C    12.38000011  11.94000053  49.52000046
C    11.31999969  12.03999996  50.40999985
C    10.05000019  11.51000023  50.08999634
C     8.97999954  11.51999950  51.03000259
C     7.71000004  11.21999931  50.58000183
C     7.44999981  10.88000107  49.22999954
C     8.51000023  10.70000076  48.36999893
C     9.84000015  11.05999947  48.74000168
C    13.81000042  12.09000015  49.79999924
C    14.55000019  11.77999973  48.62999725
C    15.93999958  11.84000015  48.55999756
C     6.02999973  10.54999924  48.85000229
H     5.64000654  11.26616955  48.12674332
H    10.59000015  11.18999958  46.66999817
H    11.51000023  12.28000069  51.45000076
H     9.15000057  11.90999985  52.02999878
H     6.91999960  11.16000080  51.31999969
H     8.23000050  10.44999981  47.35000229
H    16.39999962  11.64000034  47.60000229
H     5.46000004  10.62999916  49.78000259
H     5.84000015   9.52000046  48.54000092
