96

S    16.81999969  12.46999931  58.31999969
C    19.51000023  12.69999981  57.54000092
C    18.22000122  12.31999969  57.23999786
C    17.88999939  11.75000000  55.97000122
C    18.86000061  11.68000031  54.99000168
C    20.20000076  12.02999973  55.27999878
C    21.25999832  11.87000084  54.33000183
C    22.56999969  12.09000015  54.65999985
C    22.90999985  12.56000042  55.96000290
C    21.93000031  12.64999962  56.91999817
C    20.55000114  12.46000099  56.60999680
C    16.44000053  11.63000011  55.83000183
C    15.73999977  12.05999947  56.97999954
C    14.35999966  12.18999958  57.02000046
C    24.36000061  12.79999924  56.31999969
H    24.80187798  12.19419861  57.11110687
H    19.78000069  13.15000057  58.48999786
H    18.59000015  11.28999901  54.02000046
H    21.12999916  11.44999981  53.34000015
H    23.32999992  12.02999973  53.88000107
H    22.32000160  12.96000004  57.88000107
H    13.89999962  12.50000000  57.95000076
H    25.06000137  12.61000061  55.50000000
H    24.37000084  13.86000061  56.60999680
S    13.20000076  10.88000107  53.47999954
C    10.48999977  10.86999989  54.20000076
C    11.79999924  11.17000008  54.52000046
C    12.15999985  11.80999947  55.75000000
C    11.11999989  12.02999973  56.63999939
C     9.76000023  11.79999924  56.36000061
C     8.73000050  11.98999977  57.32999802
C     7.46999979  11.54000092  57.02000046
C     7.11000013  10.97000027  55.77000046
C     8.09000015  10.86999989  54.80999756
C     9.44000053  11.23000050  55.07999802
C    13.60000038  11.94000053  55.86000061
C    14.32000065  11.44000053  54.73999786
C    15.69000053  11.26999950  54.69999695
C     5.69999981  10.51000023  55.52000046
H     5.22294426  11.14370060  54.77237701
H    10.32999992  10.15999985  53.40000153
H    11.47999954  12.25999928  57.64999771
H     8.93999958  12.42000008  58.30999756
H     6.72999954  11.82000065  57.77000046
H     7.86000013  10.51000023  53.81000137
H    16.27000046  10.93999958  53.83999634
H     5.28999996  10.64000034  56.52999878
H     5.77000046   9.46000004  55.21999741
S    17.27000046  13.15999985  52.36999893
C    19.96000099  13.22999954  51.59000015
C    18.63999939  13.03999996  51.25000000
C    18.25000000  12.43000031  50.01999664
C    19.29999924  12.15999985  49.16999817
C    20.65999985  12.50000000  49.40000153
C    21.70000076  12.34000015  48.44999695
C    23.02000046  12.64000034  48.70999908
C    23.31999969  13.12999916  50.00999832
C    22.36999893  13.43000031  50.96000290
C    21.02999878  13.04999924  50.68000031
C    16.80999947  12.18000031  49.93999863
C    16.13999939  12.56000042  51.12999725
C    14.75999928  12.68000031  51.11000061
C    24.75000000  13.55999947  50.27000046
H    25.17766190  13.02542305  51.11819458
H    20.20999908  13.69999981  52.54000092
H    19.05999947  11.85999966  48.15000153
H    21.40000153  11.85999966  47.51999664
H    23.81000137  12.42000008  48.00000000
H    22.65999985  13.96999931  51.86000061
H    14.32000065  13.04999924  52.02999878
H    25.36000061  13.43999958  49.36999893
H    24.79000092  14.63999939  50.45999908
S    13.57999992  11.32999992  47.56999969
C    10.88000107  11.44999981  48.15999985
C    12.17000008  11.64999962  48.59000397
C    12.56999969  12.30000019  49.79999924
C    11.59000015  12.46000099  50.76000214
C    10.26999950  12.06999969  50.40999985
C     9.25000000  12.11999989  51.39999771
C     7.96000004  11.77999973  51.10000229
C     7.62000036  11.25000000  49.81999969
C     8.56000042  11.02000046  48.85000229
C     9.84000015  11.59000015  49.12000275
C    14.01999950  12.43999958  49.93999863
C    14.70000076  11.92000008  48.81999969
C    16.09000015  11.89000034  48.79000092
C     6.19000006  10.78999996  49.61000061
H     5.66468143  11.42890167  48.90010834
H    10.67000008  10.86999989  47.27000427
H    11.69999981  12.82999992  51.77000046
H     9.39000034  12.43999958  52.43000031
H     7.11000013  12.05000019  51.72000122
H     8.40999985  10.44999981  47.94000244
H    16.54000092  11.75000000  47.81000137
H     5.69999981  10.77999973  50.58000183
H     6.17000008   9.78999996  49.15999985
