96

S    17.05000114  12.13999939  58.47999954
C    19.71999931  12.15000057  57.72999573
C    18.42000008  11.85999966  57.39999771
C    18.07999992  11.21999931  56.16000366
C    19.03000069  11.07999992  55.17000198
C    20.38000107  11.39000034  55.45999908
C    21.42000008  11.25000000  54.50000000
C    22.72000122  11.61999893  54.75000000
C    23.06999969  12.13000107  56.03000259
C    22.06000137  12.38000011  56.93000031
C    20.72999954  11.90999985  56.76000214
C    16.63999939  11.36000061  56.00000000
C    15.93000031  11.79999924  57.15000153
C    14.55000019  11.94000053  57.29000092
C    24.48999786  12.61000061  56.25000000
H    24.96686172  12.10466957  57.08984756
H    20.03000069  12.64999962  58.64999771
H    18.78000069  10.70000076  54.18000031
H    21.24000168  10.93999958  53.47000122
H    23.45000076  11.64999962  53.95000076
H    22.25000000  12.89999962  57.85999680
H    14.09000015  12.43000031  58.13999939
H    25.05000114  12.53000069  55.31000137
H    24.54000092  13.68999958  56.42000198
S    13.31999969  10.77999973  53.70999908
C    10.59000015  11.03999996  54.23999786
C    11.89000034  11.19999981  54.66999817
C    12.35999966  11.54000092  55.97999954
C    11.31999969  11.79999924  56.84999847
C     9.96999931  11.47999954  56.58000183
C     8.94999981  11.56999969  57.56999969
C     7.63000011  11.28000069  57.29999924
C     7.21000004  10.93000031  55.98999786
C     8.19999981  10.84000015  55.02999878
C     9.57999992  11.11999989  55.24000168
C    13.80000019  11.49000072  56.19999695
C    14.47999954  11.10999966  55.01999664
C    15.85999966  11.02000046  54.88999939
C     5.88000011  10.29000092  55.68000031
H     5.35397720  10.79469776  54.86964035
H    10.32999992  10.67999935  53.25000000
H    11.52999973  12.07999992  57.88000107
H     9.30999947  11.95000076  58.52000427
H     6.90000010  11.13000011  58.09000015
H     7.90000010  10.62000084  54.01000214
H    16.28000069  10.65999985  53.95000076
H     5.33999968  10.21999931  56.63999939
H     6.07999992   9.30999947  55.22999573
S    17.56999969  12.64000034  52.56000137
C    20.25000000  12.74000072  51.81999969
C    18.96999931  12.36999989  51.49000168
C    18.56999969  11.77999973  50.25000000
C    19.50000000  11.52999973  49.25000000
C    20.82999992  11.87999916  49.58000183
C    21.87000084  11.72999954  48.61999893
C    23.19999886  11.97999954  48.86000061
C    23.61000061  12.56000042  50.08999634
C    22.60000038  12.79999924  51.00000000
C    21.22999954  12.48999977  50.81999969
C    17.12000084  11.76000023  50.13999939
C    16.40999985  12.18999958  51.29000092
C    15.03000069  12.36999989  51.37000275
C    25.06000137  12.71000004  50.47000122
H    25.34530258  12.17505646  51.37583542
H    20.40999985  13.32999992  52.70999908
H    19.32999992  11.10000038  48.27000046
H    21.53000069  11.38000011  47.64999771
H    23.92000008  11.56999969  48.15999985
H    22.79999924  13.26000023  51.97000122
H    14.61999989  12.58999920  52.35000229
H    25.66999817  12.43999958  49.59000015
H    25.25000000  13.78999901  50.51000214
S    13.96999931  11.50000000  47.63999939
C    11.25000000  11.44999981  48.20000076
C    12.51999950  11.75000000  48.61999893
C    12.84000015  12.06999969  49.98000336
C    11.77000046  12.34000015  50.83000183
C    10.44000053  12.02000046  50.50000000
C     9.32999992  12.30999947  51.35000229
C     8.05999947  12.22000027  50.84999847
C     7.82999992  11.64000034  49.58000183
C     8.86999989  11.32999992  48.73000336
C    10.21000004  11.54999924  49.15999985
C    14.27000046  12.05999947  50.24000168
C    14.98999977  11.69000053  49.08000183
C    16.35000038  11.42000008  49.02000046
C     6.40999985  11.21000099  49.27000046
H     5.86079168  11.95892048  48.69939423
H    10.97000027  11.03000069  47.22999954
H    12.02000046  12.71999931  51.81999969
H     9.47000027  12.71000004  52.35000229
H     7.21000004  12.25999928  51.52999878
H     8.80000019  10.76000023  47.81000137
H    16.84000015  11.11999989  48.09000015
H     5.89999962  11.14999962  50.24000168
H     6.30999994  10.25000000  48.75000000
