96

S    16.73999977  12.15000057  58.23999786
C    19.45999908  12.32999992  57.50999832
C    18.19000053  11.85999966  57.25999832
C    17.86000061  11.36999989  55.96000290
C    18.81999969  11.23999977  54.98000336
C    20.17000008  11.59999943  55.24000168
C    21.22999954  11.64000034  54.29999924
C    22.52000046  11.97999954  54.62999725
C    22.85000038  12.31999969  55.97000122
C    21.83000183  12.41000080  56.88000107
C    20.48000145  12.06999969  56.56000137
C    16.42000008  11.31000042  55.70999908
C    15.71000004  11.72999954  56.86000061
C    14.32999992  11.76000023  57.01000214
C    24.26000214  12.61999989  56.43000031
H    24.45262909  12.17766762  57.40741348
H    19.72999954  12.76000023  58.47000122
H    18.59000015  10.82999992  54.00000000
H    20.96999931  11.23000050  53.33000183
H    23.36000061  11.90000057  53.94000244
H    22.06000137  12.76999950  57.88000107
H    13.86999989  12.18999958  57.90000153
H    25.00999832  12.32999992  55.68000031
H    24.37000084  13.71000099  56.38000107
S    13.15000057  10.65000057  53.39000320
C    10.44999981  10.54999924  54.09999847
C    11.72999954  10.95000076  54.40000153
C    12.09000015  11.46999931  55.68999863
C    11.09000015  11.72000027  56.60999680
C     9.73999977  11.46000004  56.29000092
C     8.67000008  11.68000031  57.19999695
C     7.37999964  11.32999992  56.84999847
C     7.07999992  10.76000023  55.58000183
C     8.07999992  10.55999947  54.65999985
C     9.43000031  10.84000015  55.02999878
C    13.53000069  11.46999931  55.89000320
C    14.23999977  11.06999969  54.72999954
C    15.62000084  11.02000046  54.59999847
C     5.65999985  10.36999893  55.20999908
H     5.13259602  11.11834335  54.61845398
H    10.11999989  10.31000042  53.09000015
H    11.31999969  12.01000023  57.63000107
H     8.89999962  11.98999977  58.22000122
H     6.51000023  11.51999950  57.47000122
H     7.73999977  10.21000004  53.68999863
H    16.03999901  10.90000057  53.61000061
H     5.00999975  10.21999931  56.07999802
H     5.51999998   9.44999981  54.62999725
S    13.22999954   8.97000027  50.48999786
C    10.53999996   8.40999985  51.11999893
C    11.87999916   8.32999992  51.44000244
C    12.35999966   7.64999962  52.61000061
C    11.46000004   7.09000015  53.48999786
C    10.06000042   7.22000027  53.29999924
C     9.04999924   6.76000023  54.19000244
C     7.72000027   6.84999990  53.83999634
C     7.30000019   7.49000025  52.63999939
C     8.26000023   7.99000025  51.79999924
C     9.64999962   7.88000011  52.09000015
C    13.81000042   7.67000008  52.74000168
C    14.40999985   8.38000011  51.66999817
C    15.77000046   8.65999985  51.63000107
C     5.82000017   7.64999962  52.37999725
H     5.43730640   7.18226337  51.47287750
H    10.18000031   8.86999989  50.20999908
H    11.85999966   6.61999989  54.38000107
H     9.30000019   6.28999996  55.13999939
H     7.03000021   6.40999985  54.54999924
H     8.02999973   8.56000042  50.90000153
H    16.13000107   9.42000008  50.93999863
H     5.21000004   7.40999985  53.25000000
H     5.58000040   8.71999931  52.43000031
S    17.14999962   7.20000029  55.06999969
C    19.78000069   7.90999985  54.52999878
C    18.45000076   8.02999973  54.20000076
C    17.97999954   8.47000027  52.91999817
C    18.89999962   8.96000004  52.01000214
C    20.28000069   8.86999989  52.30999756
C    21.22999954   9.25000000  51.31999969
C    22.56000137   9.11000061  51.60999680
C    23.03999901   8.64999962  52.87000275
C    22.13000107   8.23999977  53.81999969
C    20.72999954   8.34000015  53.56999969
C    16.54999924   8.27999973  52.72999573
C    15.95000076   7.60999966  53.82999802
C    14.60999966   7.23999977  53.81000137
C    24.53000069   8.50000000  53.02999878
H    24.88524055   8.74156284  54.03177261
H    20.13999939   7.40000010  55.41999817
H    18.47999954   9.39000034  51.10000229
H    20.92000008   9.59999943  50.34000015
H    23.36000061   9.39000034  50.91999817
H    22.49000168   8.05000019  54.82999802
H    14.13000011   6.71000004  54.62999725
H    25.00000000   9.19999981  52.32999802
H    24.72999954   7.50000000  52.62000275
