96

S    16.54999924  12.13999939  58.46000290
C    19.13999939  12.64000034  57.63999939
C    17.90999985  12.10999966  57.31999969
C    17.56000137  11.63000011  56.02000427
C    18.57999992  11.59000015  55.07999802
C    19.85999870  12.10999966  55.37000275
C    20.93000031  11.90000057  54.45000076
C    22.19000053  12.32999992  54.81999969
C    22.47999954  13.01000023  56.03000259
C    21.42999840  13.27999973  56.86999893
C    20.13000107  12.74000072  56.63000107
C    16.11999893  11.50000000  55.91999817
C    15.43000031  11.82000065  57.11999893
C    14.04000092  11.90999985  57.22000122
C    23.90000153  13.40000057  56.39999771
H    24.30551720  12.70991230  57.13988495
H    19.45000076  12.89000034  58.64999771
H    18.38000107  11.36000061  54.02999878
H    20.72000122  11.23000050  53.61999893
H    22.98999977  12.02000046  54.15999985
H    21.68000031  13.63000011  57.87000275
H    13.52000046  12.18999958  58.13000107
H    24.40999985  13.22999954  55.44000244
H    23.95999908  14.46000004  56.68000031
S    12.88000011  11.28000069  53.50999832
C    10.15999985  11.36999989  54.19000244
C    11.46999931  11.56999969  54.55999756
C    11.80999947  11.77999973  55.93000031
C    10.82999992  11.84000015  56.90000153
C     9.47000027  11.68000031  56.53999710
C     8.39999962  11.57999992  57.48000336
C     7.07999992  11.47999954  57.11000061
C     6.78999996  11.09000015  55.77999878
C     7.78999996  11.10000038  54.84000397
C     9.13000011  11.44000053  55.15999603
C    13.26000023  11.71000004  56.06999969
C    13.99000072  11.40999985  54.88999939
C    15.36000061  11.21000099  54.79000092
C     5.42999983  10.48999977  55.47000122
H     4.86515999  11.10488892  54.76931000
H     9.94000053  11.07999992  53.16999817
H    11.02000046  11.94000053  57.97000122
H     8.64000034  11.67000008  58.53000259
H     6.35999966  11.42000008  57.91999817
H     7.67000008  10.62999916  53.87000275
H    15.82999992  11.10999966  53.81000137
H     4.76000023  10.42000008  56.33999634
H     5.49000025   9.43000031  55.18000031
S    13.32999992   8.78999996  50.90999985
C    10.72000027   8.28999996  51.51000214
C    12.01000023   8.27999973  51.97999954
C    12.43000031   7.81000042  53.26000214
C    11.40999985   7.36000013  54.08000183
C    10.05000019   7.42999983  53.69999695
C     9.03999996   6.96000004  54.59000015
C     7.71000004   6.94000006  54.27000046
C     7.35000038   7.60999966  53.08000183
C     8.27999973   8.06999969  52.16999817
C     9.68000031   8.00000000  52.43000031
C    13.88000011   7.92000008  53.40000153
C    14.47000027   8.47999954  52.23999786
C    15.80999947   8.82999992  52.18999863
C     5.88000011   7.71000004  52.72999573
H     5.59469652   6.80416298  52.19505692
H    10.34999943   8.69000053  50.56000137
H    11.61999893   6.89000034  55.04000092
H     9.28999996   6.58999968  55.58000183
H     6.91999960   6.57999992  54.93000031
H     8.07999992   8.39999962  51.16000366
H    16.13999939   9.26000023  51.25000000
H     5.31000042   7.68000031  53.66000366
H     5.69000006   8.61999989  52.15000153
S    17.21999931   7.04999971  55.50000000
C    19.85000038   7.77999973  54.94999695
C    18.53000069   7.79999971  54.56999969
C    18.05999947   8.53999996  53.43000031
C    19.02000046   9.11000061  52.62000275
C    20.40999985   8.86999989  52.77999878
C    21.42000008   9.38000011  51.91999817
C    22.75000000   9.22000027  52.22000122
C    23.16999817   8.60999966  53.43999863
C    22.20000076   8.22000027  54.33000183
C    20.81000137   8.28999996  54.03999710
C    16.61999893   8.40999985  53.26000214
C    16.05999947   7.65999985  54.31000137
C    14.68999958   7.44000006  54.43000031
C    24.64999962   8.43999958  53.69999695
H    24.94878006   8.95930958  54.61057281
H    20.13999939   7.39000034  55.91999817
H    18.65999985   9.50000000  51.66999817
H    21.21000099  10.00000000  51.04999924
H    23.38999939   9.63999939  51.45000076
H    22.56000137   7.82000017  55.27000046
H    14.25000000   6.90000010  55.27000046
H    25.29000092   8.82000065  52.88999939
H    24.93000031   7.37999964  53.79000092
