96

S    17.12000084  12.46000099  58.53000259
C    19.85000038  12.43000031  57.75000000
C    18.53000069  12.10000038  57.50999832
C    18.19000053  11.46999931  56.27999878
C    19.13999939  11.30000019  55.27999878
C    20.48999977  11.63000011  55.52999878
C    21.56999969  11.36999989  54.64000320
C    22.86999893  11.69000053  54.98000336
C    23.21000099  12.25000000  56.24000168
C    22.20999908  12.48000050  57.15999985
C    20.86999893  12.13999939  56.81999969
C    16.75000000  11.28000069  56.18000031
C    16.03000069  11.87000084  57.25999832
C    14.65000057  12.05000019  57.27000427
C    24.70000076  12.43000031  56.45999908
H    25.05073738  12.01484203  57.40484238
H    20.03000069  12.97999954  58.67000198
H    18.92000008  10.82999992  54.33000183
H    21.35000038  10.88999939  53.68999863
H    23.67000198  11.31999969  54.34999847
H    22.47999954  12.81000042  58.15999985
H    14.14999962  12.53999901  58.09000015
H    25.25000000  11.97999954  55.61999893
H    24.93999863  13.50000000  56.45999908
S    13.52000046  10.44000053  53.82999802
C    10.80000019  10.57000065  54.47999954
C    12.09000015  10.97000027  54.73999786
C    12.46000099  11.59999943  55.97000122
C    11.46999931  11.89000034  56.90000153
C    10.13000011  11.51999950  56.65000153
C     9.07999992  11.71000004  57.58999634
C     7.76000023  11.47999954  57.28000259
C     7.37999964  10.88999939  56.04000092
C     8.39999962  10.57999992  55.17000198
C     9.77999973  10.86999989  55.40999985
C    13.89999962  11.59999943  56.18000031
C    14.60999966  11.00999928  55.10000229
C    15.98000050  10.80000019  55.11000061
C     6.01999998  10.29000092  55.79000092
H     5.38748598  11.06465244  55.35647964
H    10.59000015  10.01000023  53.56999969
H    11.68000031  12.15999985  57.93000031
H     9.43000031  11.92999935  58.59000397
H     7.00000000  11.71000004  58.02000046
H     8.18000031  10.07999992  54.23999786
H    16.55999947  10.39000034  54.29000092
H     5.55000019   9.98999977  56.73999786
H     6.21000004   9.42000008  55.13999939
S    16.86000061  12.61999989  52.69000244
C    19.55000114  12.61000061  51.97999954
C    18.23999977  12.39999962  51.60999680
C    17.87999916  11.92000008  50.31000137
C    18.89999962  11.57999992  49.43999863
C    20.26000023  11.80999947  49.75999832
C    21.27000046  11.61999893  48.77999878
C    22.56000137  12.03999996  49.00000000
C    22.89999962  12.55000019  50.27999878
C    21.96000099  12.69999981  51.26999664
C    20.59000015  12.38000011  51.04999924
C    16.43000031  11.82999992  50.15999603
C    15.77000046  12.25999928  51.33999634
C    14.39000034  12.43999958  51.38999939
C    24.27999878  13.12000084  50.52999878
H    24.77746010  12.43776798  51.21933746
H    19.75000000  13.07999992  52.94000244
H    18.75000000  11.11999989  48.47000122
H    20.90999985  11.38000011  47.77999878
H    23.29000092  12.02000046  48.18999863
H    22.30999947  13.19000053  52.16999817
H    13.96999931  12.56000042  52.38999939
H    24.73999977  13.00000000  49.54000092
H    24.18000031  14.18000031  50.79999924
S    13.14000034  11.30000019  47.76000214
C    10.52000046  11.03000069  48.47999954
C    11.75000000  11.52999973  48.83999634
C    12.17000008  11.97999954  50.13999939
C    11.18000031  12.03999996  51.11000061
C     9.90999985  11.47999954  50.84000015
C     8.94999981  11.54999924  51.88000107
C     7.64999962  11.14999962  51.69000244
C     7.32999992  10.60999966  50.40999985
C     8.26000023  10.43000031  49.41999817
C     9.59999943  10.92000008  49.54999924
C    13.60999966  12.15999985  50.27000046
C    14.25000000  11.76000023  49.06999969
C    15.60999966  11.46999931  49.09000015
C     5.88000011  10.31000042  50.11000061
H     5.54517794  10.88703346  49.24800873
H    10.31000042  10.54999924  47.52999878
H    11.35000038  12.28000069  52.15999985
H     9.15999985  12.02000046  52.84000015
H     6.81999969  11.39999962  52.36000061
H     7.83999968  10.11999989  48.47000122
H    16.11999893  11.05999947  48.22000122
H     5.23999977  10.57000065  50.96000290
H     5.72000027   9.23999977  49.94999695
