96

S    16.35000038  12.07999992  58.39000320
C    19.04999924  12.10000038  57.84999847
C    17.80999947  11.61000061  57.50999832
C    17.45000076  11.14999962  56.19999695
C    18.52000046  10.97000027  55.34000015
C    19.80999947  11.50000000  55.58000183
C    20.78000069  11.39000034  54.54999924
C    22.04999924  11.78999996  54.88999939
C    22.34000015  12.46000099  56.11999893
C    21.37000084  12.64000034  57.06999969
C    20.05000114  12.15999985  56.84000015
C    16.02000046  11.05000019  55.96000290
C    15.29000092  11.54000092  57.06999969
C    13.90999985  11.69999981  57.09999847
C    23.75999832  12.86999893  56.44000244
H    24.26493454  12.16593647  57.10139084
H    19.15999985  12.69000053  58.75000000
H    18.26000023  10.47999954  54.40000153
H    20.48000145  11.00999928  53.57999802
H    22.86000061  11.64000034  54.19000244
H    21.50000000  13.15000057  58.02000046
H    13.43999958  11.97999954  58.02999878
H    24.26000214  13.05999947  55.48999786
H    23.68000031  13.85000038  56.93000031
S    12.76999950  10.39000034  53.50000000
C    10.08999920  10.47000027  54.27000046
C    11.39999962  10.77999973  54.55999756
C    11.77000046  11.23000050  55.86000061
C    10.77999973  11.46000004  56.79999924
C     9.44000053  11.10000038  56.56000137
C     8.39999962  11.16000080  57.54000092
C     7.11999989  10.72999954  57.25000000
C     6.78999996  10.22999954  55.96000290
C     7.76999998  10.11999989  55.00000000
C     9.10000038  10.54999924  55.27999878
C    13.22000027  11.32999992  55.93000031
C    13.89999962  10.85999966  54.78000259
C    15.27999973  10.72000027  54.80999756
C     5.29999971  10.11000061  55.68999863
H     5.07969999  10.43689823  54.67377853
H     9.77000046  10.00000000  53.34000015
H    10.95999908  11.84000015  57.80000305
H     8.56999969  11.51999950  58.54999924
H     6.46000004  11.03000069  58.06000137
H     7.59000015   9.68999958  54.02000046
H    15.95000076  10.32999992  54.05000305
H     4.88000011  10.77000046  56.45000076
H     5.07000017   9.04999924  55.77999878
S    12.97999954   8.11999989  50.56000137
C    10.26999950   7.82000017  51.25000000
C    11.59999943   7.62000036  51.55000305
C    12.02999973   7.07000017  52.81000137
C    11.11999989   6.70000029  53.77999878
C     9.73999977   6.80000019  53.46000290
C     8.78000069   6.32999992  54.40000153
C     7.46999979   6.24000025  53.99000168
C     7.07999992   6.80000019  52.75000000
C     7.94000053   7.46000004  51.90000153
C     9.32999992   7.34000015  52.18999863
C    13.47000027   7.21000004  52.93000031
C    14.14999962   7.82999992  51.84999847
C    15.47999954   8.23999977  51.79999924
C     5.60999966   6.71000004  52.41000366
H     5.48223352   6.22022867  51.44465256
H     9.85999966   8.31999969  50.38000107
H    11.44000053   6.15000010  54.65999985
H     9.06000042   5.91000032  55.35999680
H     6.80999994   5.82999992  54.75000000
H     7.68000031   7.88999987  50.93999863
H    15.88000107   8.82000065  50.97999954
H     5.10999966   6.17999983  53.22000122
H     5.09999990   7.68000031  52.36000061
S    16.88999939   6.84000015  55.21999741
C    19.55000114   7.53000021  54.56999969
C    18.22000122   7.50000000  54.25000000
C    17.71000099   8.05999947  53.02999878
C    18.60999870   8.57999992  52.11999893
C    19.98999977   8.61999989  52.43999863
C    20.95000076   9.22999954  51.59999847
C    22.29999924   9.26000023  51.84999847
C    22.79000092   8.43999958  52.90999985
C    21.90999985   7.90999985  53.82999802
C    20.51000214   8.07999992  53.67000198
C    16.27000046   7.90999985  52.90999985
C    15.65999985   7.22000027  54.00000000
C    14.29999924   6.93000031  54.02000046
C    24.26000214   8.18000031  53.11000061
H    24.75813103   8.74217510  53.89989090
H    19.95000076   6.86999989  55.34000015
H    18.18000031   9.03999996  51.24000168
H    20.53999901   9.59000015  50.65999985
H    22.95999908   9.76000023  51.14999771
H    22.27000046   7.35000038  54.68999863
H    13.83999920   6.35999966  54.81999969
H    24.86000061   8.27000046  52.19999695
H    24.27999878   7.16000032  53.50999832
