96

S    16.95000076  12.46999931  58.75999832
C    19.70999908  12.64000034  57.97999954
C    18.38000107  12.35999966  57.71999741
C    18.01000023  11.97999954  56.38999939
C    18.98999977  11.82000065  55.43000031
C    20.31999969  12.25000000  55.63999939
C    21.25999832  12.02999973  54.59000015
C    22.57999802  12.02999973  54.97000122
C    22.98000145  12.13999939  56.31999969
C    22.11000061  12.68000031  57.25000000
C    20.71000099  12.61999989  56.97999954
C    16.56999969  11.85999966  56.17000198
C    15.90000057  12.30000019  57.34000397
C    14.51000023  12.35000038  57.32999802
C    24.46000099  11.97000027  56.55000305
H    24.79996872  11.91333866  57.58407974
H    19.96999931  13.02999973  58.95999908
H    18.85000038  11.35000038  54.45999908
H    20.95000076  11.54000092  53.67000198
H    23.26999855  11.63000011  54.22999954
H    22.43000031  12.89999962  58.26000214
H    13.90999985  12.65999985  58.18000031
H    24.80999947  11.10000038  55.98999786
H    25.00999832  12.79000092  56.06999969
S    13.43999958  10.82999992  53.79000092
C    10.73999977  10.90999985  54.31999969
C    12.01000023  11.21999931  54.75999832
C    12.35999966  11.75000000  56.04999924
C    11.31000042  11.95000076  56.91999817
C     9.98999977  11.57999992  56.59000015
C     8.85000038  11.85999966  57.41000366
C     7.59999990  11.44000053  57.02000046
C     7.36999989  10.95999908  55.70000076
C     8.42000008  10.62999916  54.86999893
C     9.72000027  11.00000000  55.30000305
C    13.80000019  11.89000034  56.22000122
C    14.50000000  11.44999981  55.06999969
C    15.88999939  11.44000053  55.01999664
C     5.97000027  10.51000023  55.37000275
H     5.58587646  11.29247379  54.71556854
H    10.62000084  10.50000000  53.31999969
H    11.56000042  12.35000038  57.90000153
H     8.88000011  12.35999966  58.36999893
H     6.78999996  11.63000011  57.71999741
H     8.25000000  10.24000072  53.87000275
H    16.26000023  10.95999908  54.12000275
H     5.45000029  10.36999893  56.31999969
H     6.15000010   9.59999943  54.79000092
S    17.14999962  12.97999954  52.30999756
C    19.84000015  13.07999992  51.60999680
C    18.55999947  12.71999931  51.25999832
C    18.23999977  12.25000000  49.94999695
C    19.19999886  11.89000034  49.02999878
C    20.52000046  12.22000027  49.41999817
C    21.56999969  12.05000019  48.46000290
C    22.88999939  12.30000019  48.73000336
C    23.23999786  12.89999962  49.97000122
C    22.23999977  13.17000008  50.87999725
C    20.88000107  12.77999973  50.68999863
C    16.79999924  12.05999947  49.82999802
C    16.10000038  12.35999966  51.02000427
C    14.70999908  12.46999931  51.06999969
C    24.65999985  13.26000023  50.34000015
H    25.03017998  12.79015541  51.25121689
H    20.07999802  13.48999977  52.57999802
H    18.98999977  11.64999962  47.98999786
H    21.11999893  11.76000023  47.51999664
H    23.59000015  12.27000046  47.90000153
H    22.47999954  13.68000031  51.81000137
H    14.15999985  12.68000031  51.97999954
H    25.23999977  12.94999981  49.45999908
H    24.70000076  14.34999943  50.41999817
S    13.50999928  11.23999977  47.49000168
C    10.88999939  11.59000015  48.09000015
C    12.18000031  11.92000008  48.43000031
C    12.53999901  12.35000038  49.75000000
C    11.59000015  12.31999969  50.75000000
C    10.22999954  12.13999939  50.40999985
C     9.25000000  12.10000038  51.44000244
C     7.95000029  11.79999924  51.11000061
C     7.51999950  11.44000053  49.79999924
C     8.53999996  11.31000042  48.88999939
C     9.88000011  11.76000023  49.06999969
C    13.99000072  12.30000019  49.87999725
C    14.63999939  11.75000000  48.75000000
C    16.03000069  11.59999943  48.75000000
C     6.11000013  10.95000076  49.54999924
H     5.71165705  11.54040146  48.72486115
H    10.62999916  11.03000069  47.18999863
H    11.90000057  12.50000000  51.77999878
H     9.65999985  12.25000000  52.43999863
H     7.23000002  11.80999947  51.93000031
H     8.31999969  10.65999985  48.04000092
H    16.53000069  11.14999962  47.90000153
H     5.42999983  11.07999992  50.40999985
H     6.21000004   9.89000034  49.31999969
