96

S    16.79000092  12.46000099  58.25000000
C    19.43000031  12.35000038  57.64999771
C    18.17000008  11.97999954  57.25000000
C    17.76000023  11.39999962  56.00000000
C    18.82999992  11.14999962  55.15999603
C    20.15999985  11.47999954  55.50000000
C    21.24000168  11.54000092  54.56999969
C    22.56999969  11.79999924  54.81999969
C    22.86999893  12.25999928  56.12999725
C    21.87000084  12.36999989  57.05999756
C    20.51000214  12.06999969  56.77000046
C    16.31999969  11.44999981  55.84000015
C    15.65999985  12.00000000  56.97000122
C    14.27000046  12.02999973  57.04999924
C    24.30000114  12.64999962  56.45000076
H    24.76840019  12.03256416  57.21646881
H    19.62000084  12.65999985  58.68000031
H    18.60000038  10.76000023  54.18000031
H    20.90999985  11.52999973  53.53000259
H    23.32999992  11.92000008  54.06000137
H    22.03000069  12.84999943  58.02000046
H    13.81999969  12.35999966  57.97999954
H    24.94999886  12.69000053  55.56999969
H    24.27000046  13.71000099  56.76000214
S    13.01000023  10.59999943  53.57999802
C    10.27999973  10.60999966  54.40000153
C    11.61000061  10.78999996  54.66999817
C    12.05000019  11.23000050  55.96000290
C    11.11999989  11.52999973  56.93000031
C     9.75000000  11.23000050  56.73999786
C     8.76000023  11.46000004  57.74000168
C     7.42999983  11.26999950  57.43999863
C     7.00000000  10.72999954  56.19999695
C     7.94000053  10.60999966  55.20000076
C     9.32999992  10.84000015  55.41999817
C    13.48000050  11.51000023  56.02000427
C    14.14999962  11.06999969  54.85000229
C    15.53999996  11.03999996  54.75000000
C     5.59999990  10.21000004  55.97000122
H     5.00345135  10.73553181  55.22431564
H     9.96999931  10.40999985  53.36999893
H    11.36000061  11.94000053  57.90999985
H     9.11999989  11.87000084  58.68000031
H     6.70000029  11.40999985  58.22999954
H     7.57000017  10.36999893  54.20999908
H    15.88000107  10.62000084  53.81000137
H     5.05999994  10.43000031  56.90000153
H     5.63000011   9.11999989  55.89000320
S    16.97000122  12.48000050  52.25000000
C    19.69000053  12.77999973  51.60999680
C    18.40999985  12.48999977  51.20999908
C    18.04000092  12.05999947  49.88999939
C    19.09000015  11.84000015  49.02999878
C    20.42000008  12.20999908  49.36999893
C    21.48999977  12.10999966  48.43999863
C    22.79000092  12.35999966  48.80000305
C    23.12999916  12.89000034  50.06999969
C    22.11999893  12.94000053  51.00000000
C    20.76999855  12.60000038  50.70999908
C    16.60000038  11.97000027  49.65000153
C    15.90000057  12.15999985  50.86999893
C    14.52000046  12.18999958  51.03000259
C    24.57999992  13.27000046  50.31999969
H    25.01330948  12.75855350  51.17951584
H    19.70999908  13.20000076  52.61000061
H    18.96999931  11.40999985  48.02999878
H    21.22999954  11.85999966  47.41000366
H    23.64000130  12.30000019  48.11999893
H    22.39999962  13.27000046  52.00000000
H    14.14999962  12.31999969  52.04000092
H    25.10000038  13.25000000  49.36000061
H    24.46000099  14.34999943  50.45999908
S    13.25000000  11.23999977  47.41000366
C    10.57999992  10.97000027  48.26000214
C    11.89000034  11.26999950  48.55999756
C    12.28999996  11.75000000  49.84000397
C    11.35000038  11.85999966  50.86000061
C    10.01000023  11.56999969  50.52999878
C     8.94999981  11.79999924  51.45999908
C     7.62000036  11.64000034  51.18000031
C     7.23000002  11.13999939  49.91000366
C     8.19000053  10.84000015  48.96999741
C     9.56999969  11.11999989  49.23999786
C    13.73000050  11.94000053  49.89999771
C    14.40000057  11.71000004  48.67000198
C    15.77999973  11.69000053  48.54999924
C     5.79999971  10.80999947  49.54000092
H     5.36617517  11.41450977  48.74346924
H    10.34000015  10.76000023  47.22000122
H    11.65999985  12.22000027  51.83000183
H     9.23999977  12.30000019  52.37999725
H     6.86999989  11.72999954  51.97000122
H     7.82000017  10.47000027  48.02000046
H    16.27000046  11.59000015  47.58999634
H     5.13999987  10.80000019  50.41999817
H     5.82000017   9.75000000  49.25000000
