96

S    16.50000000  12.20999908  58.50999832
C    19.25000000  12.07999992  57.91999817
C    17.94000053  11.92999935  57.51999664
C    17.56999969  11.64000034  56.17000198
C    18.61999893  11.52999973  55.27000046
C    19.96000099  11.77999973  55.63999939
C    21.04000092  11.61999893  54.72000122
C    22.27000046  12.15000057  55.02999878
C    22.63000107  12.53000069  56.35000229
C    21.64999962  12.51000023  57.31999969
C    20.32999992  12.10999966  56.98999786
C    16.13999939  11.44000053  56.00000000
C    15.42000008  11.87999916  57.15000153
C    14.04000092  11.90999985  57.28000259
C    23.98999977  13.01000023  56.81000137
H    24.43904305  12.32574177  57.52989578
H    19.48999977  12.44999981  58.90999603
H    18.39999962  11.23000050  54.25000000
H    20.72000122  11.36000061  53.70999908
H    23.00000000  12.20999908  54.22999954
H    21.81999969  12.97999954  58.29000092
H    13.64999962  12.18000031  58.25000000
H    24.54999924  12.96000004  55.86999893
H    23.92000008  14.04000092  57.16999817
S    12.79000092  10.64000034  53.72000122
C    10.17000008  10.36999893  54.47999954
C    11.39000034  10.90999985  54.78000259
C    11.84000015  11.31000042  56.07999802
C    10.85999966  11.38000011  57.04999924
C     9.52000046  11.09000015  56.72999954
C     8.52000046  11.31000042  57.72999573
C     7.21000004  10.95999908  57.50000000
C     6.88000011  10.14999962  56.38000107
C     7.82000017  10.03999901  55.38000107
C     9.19000053  10.42000008  55.50000000
C    13.27999973  11.51000023  56.17000198
C    13.94999981  11.10000038  54.98000336
C    15.34000015  11.05999947  54.92000198
C     5.45000029   9.77999973  56.09000397
H     5.02251387  10.47822762  55.37039948
H     9.89000034  10.07999992  53.47000122
H    11.19999981  11.94000053  57.91999817
H     8.89000034  11.71000004  58.67000198
H     6.52999973  11.23000050  58.29999924
H     7.53000021   9.78999996  54.36000061
H    15.69000053  10.65999985  53.96999741
H     4.86999989   9.77000046  57.02000046
H     5.40999985   8.76999950  55.66999817
S    13.09000015   8.85000038  50.90000153
C    10.44999981   8.28999996  51.51000214
C    11.77000046   8.19999981  51.88000107
C    12.22000027   7.46999979  53.02999878
C    11.28999901   6.89000034  53.86000061
C     9.92000008   7.03000021  53.53000259
C     8.90999985   6.61000013  54.43999863
C     7.57999992   6.91999960  54.27000046
C     7.17999983   7.46999979  53.02999878
C     8.07999992   7.86999989  52.06999969
C     9.46000004   7.65999985  52.31999969
C    13.67000008   7.55999994  53.13999939
C    14.28999996   8.23000050  52.04999924
C    15.65000057   8.47000027  52.02000046
C     5.69999981   7.57999992  52.75000000
H     5.32217646   7.03108692  51.88742065
H    10.15999985   8.90999985  50.66999817
H    11.50000000   6.44999981  54.82999802
H     9.13999939   6.15000010  55.40000153
H     6.80000019   6.80000019  55.00999832
H     7.69000006   8.30999947  51.14999771
H    16.18000031   8.98999977  51.22000122
H     5.15999985   7.22000027  53.63999939
H     5.40000010   8.63000011  52.65999603
S    17.02999878   7.04999971  55.47000122
C    19.68000031   7.71000004  54.79000092
C    18.34000015   7.73999977  54.48999786
C    17.87999916   8.42000008  53.30999756
C    18.78000069   9.03999996  52.47000122
C    20.17999840   8.93999958  52.68000031
C    21.17000198   9.47000027  51.81000137
C    22.52000046   9.25000000  51.93999863
C    22.93000031   8.55000019  53.11000061
C    22.01999855   8.10000038  54.02999878
C    20.61000061   8.19000053  53.82999802
C    16.46999931   8.14000034  53.11000061
C    15.85999966   7.48000050  54.20999908
C    14.51000023   7.14999962  54.19000244
C    24.40999985   8.28999996  53.22999954
H    24.75674438   8.55890369  54.22777557
H    19.88000107   7.27999973  55.77000046
H    18.57999992   9.44000053  51.47999573
H    20.86000061  10.05000019  50.93999863
H    23.21000099   9.63999939  51.19999695
H    22.37999916   7.76999998  55.00000000
H    14.00000000   6.71999979  55.04000092
H    24.96000099   8.92000008  52.51999664
H    24.63999939   7.22000027  53.09000015
