96

S    16.73999977  12.67000008  58.37999725
C    19.51000023  12.76000023  57.61000061
C    18.20000076  12.38999939  57.42000198
C    17.86999893  11.64999962  56.23000336
C    18.85000038  11.28000069  55.33000183
C    20.17000008  11.77000046  55.40999985
C    21.28999901  11.42000008  54.59999847
C    22.60999870  11.56999969  54.93000031
C    22.92000008  12.28000069  56.11999893
C    21.87000084  12.77999973  56.84999847
C    20.50000000  12.44999981  56.63000107
C    16.44000053  11.57999992  56.02000427
C    15.67000008  12.13999939  57.06999969
C    14.28999996  12.25999928  57.11999893
C    24.36000061  12.53999901  56.50000000
H    24.66540337  11.84396839  57.28126144
H    19.84000015  13.12999916  58.56999969
H    18.64999962  10.57000065  54.52000046
H    21.00000000  10.84000015  53.73000336
H    23.34000015  11.09000015  54.27999878
H    22.06000137  13.26000023  57.81000137
H    13.78000069  12.68000031  57.98999786
H    24.96999931  12.38000011  55.59999847
H    24.36000061  13.55999947  56.88999939
S    13.22000027  10.67000008  53.69999695
C    10.46000004  10.60999966  54.40000153
C    11.77000046  10.90999985  54.69999695
C    12.10999966  11.61999893  55.89000320
C    11.10000038  12.06999969  56.72999954
C     9.73999977  11.79999924  56.43000031
C     8.67000008  12.02000046  57.34000397
C     7.40999985  11.54999924  57.09000015
C     7.11000013  10.77999973  55.93999863
C     8.11999989  10.46000004  55.06000137
C     9.42000008  11.00000000  55.27000046
C    13.55000019  11.69999981  56.06999969
C    14.30999947  11.25000000  54.97000122
C    15.70000076  11.11999989  54.92000198
C     5.75000000  10.17000008  55.63999939
H     5.29485798  10.73892689  54.82927704
H    10.26000023  10.05000019  53.48999786
H    11.31000042  12.41000080  57.72999573
H     8.96000004  12.53999901  58.26000214
H     6.65000010  11.77999973  57.84000015
H     7.83999968  10.07999992  54.08000183
H    16.13999939  10.59999943  54.08000183
H     5.09999990  10.21999931  56.51000214
H     5.86999989   9.13000011  55.31000137
S    13.71000099   8.60999966  50.61999893
C    11.07999992   7.96000004  51.09000397
C    12.38000011   7.86000013  51.52999878
C    12.81000042   7.26000023  52.75000000
C    11.87000084   6.72999954  53.61999893
C    10.53999996   7.00999975  53.25000000
C     9.51000023   6.65999985  54.18000031
C     8.18000031   6.80000019  53.88999939
C     7.76000023   7.42999983  52.68000031
C     8.69000053   7.78999996  51.72999954
C    10.06999969   7.57999992  52.01000214
C    14.23999977   7.49000025  52.97000122
C    14.85000038   8.22000027  51.91999817
C    16.21000099   8.52000046  51.88000107
C     6.28999996   7.73000002  52.54000092
H     5.81438398   7.36086512  51.63135910
H    10.86999989   8.51000023  50.18000031
H    12.23000050   6.25000000  54.52000046
H     9.90999985   6.12999964  55.04000092
H     7.42999983   6.24000025  54.45000076
H     8.47000027   8.36000061  50.83000183
H    16.60000038   9.13000011  51.06999969
H     5.73000002   7.26000023  53.36000061
H     6.24000025   8.82000065  52.49000168
S    17.43000031   7.14999962  55.40999985
C    20.13999939   7.67000008  54.79999924
C    18.81000137   7.68000031  54.43000031
C    18.44000053   8.21000004  53.15999985
C    19.40999985   8.52999973  52.22999954
C    20.79000092   8.47999954  52.55000305
C    21.84000015   8.89000034  51.69000244
C    23.15000153   8.59000015  51.98999786
C    23.50000000   7.99000025  53.22999954
C    22.52000046   7.75000000  54.15999985
C    21.14999962   7.97999954  53.85000229
C    16.98999977   8.13000011  52.97000122
C    16.35000038   7.46000004  54.03999710
C    14.98999977   7.16000032  54.09999847
C    24.97999954   7.90000010  53.52000427
H    25.24371910   8.30627060  54.49647522
H    20.52000046   7.22000027  55.70999908
H    19.06999969   8.71000004  51.20999908
H    21.44000053   9.31999969  50.77999878
H    23.88000107   9.00000000  51.30000305
H    22.81999969   7.37999964  55.13999939
H    14.73000050   6.71999979  55.06000137
H    25.43000031   8.52999973  52.74000168
H    25.36000061   6.88000011  53.40000153
