96

S    16.77999878  12.35999966  58.29000092
C    19.47000122  12.56000042  57.62000275
C    18.20000076  12.15000057  57.25000000
C    17.80999947  11.61000061  55.98999786
C    18.85000038  11.31000042  55.12000275
C    20.17000008  11.69999981  55.44000244
C    21.27000046  11.47999954  54.55999756
C    22.53999901  11.90000057  54.86999893
C    22.85000038  12.58999920  56.06999969
C    21.80999947  12.82999992  56.95000076
C    20.52000046  12.30000019  56.70000076
C    16.36999893  11.51000023  55.83000183
C    15.65999985  11.94000053  56.97999954
C    14.27999973  12.06999969  57.06999969
C    24.23000145  13.04999924  56.47999573
H    24.65545654  12.55363464  57.35218430
H    19.63000107  12.98999977  58.61000061
H    18.55999947  10.93999958  54.13999939
H    21.05999947  10.98000050  53.62999725
H    23.32999992  11.64999962  54.15999985
H    22.04000092  13.27999973  57.90999985
H    13.78000069  12.51999950  57.93000031
H    24.86999893  12.86000061  55.61999893
H    24.13000107  14.14000034  56.56000137
S    13.05999947  11.13999939  53.44999695
C    10.36000061  10.77000046  54.27000046
C    11.65999985  11.10999966  54.54999924
C    12.10999966  11.39000034  55.87999725
C    11.14999962  11.69000053  56.84000015
C     9.77999973  11.44000053  56.59999847
C     8.69999981  11.65999985  57.50999832
C     7.48000050  11.05999947  57.31999969
C     7.13000011  10.47999954  56.07999802
C     8.10000038  10.42000008  55.10000229
C     9.42000008  10.86999989  55.33000183
C    13.55000019  11.52999973  56.00000000
C    14.22999954  11.26999950  54.78000259
C    15.60999966  11.18999958  54.69999695
C     5.78999996   9.85000038  55.76000214
H     5.24325752  10.41804409  55.00733948
H    10.03000069  10.26999950  53.36000061
H    11.46000004  12.15999985  57.77000046
H     8.96000004  11.94000053  58.53000259
H     6.75000000  11.17000008  58.11999893
H     7.79999971   9.90999985  54.18000031
H    16.18000031  10.85000038  53.83999634
H     5.19000006   9.71000004  56.65999985
H     5.88000011   8.89000034  55.24000168
S    13.68000031   9.06999969  50.70999908
C    11.03000069   8.34000015  51.33999634
C    12.38000011   8.28999996  51.62000275
C    12.89999962   7.60999966  52.77999878
C    11.96000004   7.03999996  53.61000061
C    10.57000065   7.07999992  53.36000061
C     9.63000011   6.71999979  54.36999893
C     8.28999996   6.96000004  54.15000153
C     7.78999996   7.39000034  52.90000153
C     8.67999935   7.71000004  51.90000153
C    10.07999992   7.64999962  52.12999725
C    14.32999992   7.78999996  52.98999786
C    14.84000015   8.64000034  51.97000122
C    16.18999863   8.97000027  52.01000214
C     6.30999994   7.69000006  52.74000168
H     5.87410069   7.08259964  51.94680786
H    10.64000034   8.89999962  50.48999786
H    12.30999947   6.67999983  54.58000183
H     9.98000050   6.51999998  55.38000107
H     7.57000017   6.85999966  54.95999908
H     8.38999939   8.21000004  50.97999954
H    16.56999969   9.47000027  51.12999725
H     5.75000000   7.63999987  53.68999863
H     6.34999990   8.76000023  52.49000168
S    17.67000008   7.31999969  55.31000137
C    20.30999947   7.77999973  54.59999847
C    18.97999954   7.83999968  54.25000000
C    18.46999931   8.47000027  53.06999969
C    19.40000153   8.93999958  52.15000153
C    20.79000092   8.82000065  52.39999771
C    21.73999977   9.27999973  51.45000076
C    23.09000015   9.28999996  51.70000076
C    23.52000046   8.71999931  52.93000031
C    22.65999985   8.19000053  53.86000061
C    21.25000000   8.23000050  53.62999725
C    17.02000046   8.48999977  53.02999878
C    16.43000031   7.83999968  54.15000153
C    15.08999920   7.48000050  54.12000275
C    24.99000168   8.69000053  53.29999924
H    25.21179008   8.74008179  54.36602020
H    20.55999947   7.36999989  55.56999969
H    19.03000069   9.35000038  51.22000122
H    21.50000000   9.77999973  50.52000046
H    23.77000046   9.86999989  51.06999969
H    23.12000084   7.82000017  54.78000259
H    14.63000107   7.11999989  55.04000092
H    25.42000008   9.52000046  52.72999573
H    25.32999992   7.67000008  53.06000137
