96

S    16.61000061  12.50000000  58.48999786
C    19.34000015  12.51000023  57.93000031
C    18.06999969  12.15999985  57.52999878
C    17.81999969  11.72000027  56.18999863
C    18.89999962  11.43000031  55.37000275
C    20.22000122  11.68000031  55.81999969
C    21.35999870  11.56000042  54.98000336
C    22.62000084  11.97999954  55.31999969
C    22.82999992  12.61000061  56.56999969
C    21.77999878  12.68000031  57.47000122
C    20.45999908  12.30000019  57.09000015
C    16.38000107  11.65999985  56.02000427
C    15.59999943  12.20000076  57.06999969
C    14.21000004  12.30000019  57.05999756
C    24.20999908  12.96000004  57.08000183
H    24.73218918  12.09445286  57.48773575
H    19.54000092  13.00000000  58.88000107
H    18.84000015  10.98999977  54.38000107
H    21.32999802  11.11999989  53.97999573
H    23.47999954  11.80999947  54.66999817
H    22.04999924  13.10999966  58.43000031
H    13.63000011  12.51999950  57.95000076
H    24.82999992  13.48000050  56.32999802
H    24.11000061  13.63999939  57.93000031
S    13.27000046  10.42000008  53.69999695
C    10.51000023  10.52999973  54.22999954
C    11.79999924  10.85999966  54.59999847
C    12.11999989  11.50000000  55.84000015
C    11.10000038  11.77000046  56.72999954
C     9.76000023  11.54000092  56.33999634
C     8.69000053  11.69000053  57.25999832
C     7.39000034  11.28000069  57.05999756
C     7.11000013  10.77000046  55.76000214
C     8.09000015  10.54999924  54.81999969
C     9.44999981  10.84000015  55.12000275
C    13.53999996  11.82999992  55.91999817
C    14.30999947  11.21999931  54.89999771
C    15.67999935  11.05000019  54.97000122
C     5.71000004  10.34000015  55.43000031
H     5.20560360  11.12145901  54.86166382
H    10.44999981   9.98999977  53.29000092
H    11.28999901  12.03999996  57.77000046
H     8.92000008  12.03999996  58.27000046
H     6.58999968  11.28000069  57.78999710
H     7.86999989  10.10000038  53.86000061
H    16.21000099  10.48999977  54.19000244
H     5.15999985  10.08999920  56.35000229
H     5.80999947   9.42000008  54.84000397
S    13.17999935   8.71999931  50.52999878
C    10.53999996   8.10000038  51.12999725
C    11.87000084   7.99000025  51.46999741
C    12.32999992   7.28999996  52.63000107
C    11.38000011   6.84000015  53.53000259
C    10.00000000   7.07999992  53.34000015
C     9.03999996   6.67999983  54.31000137
C     7.69999981   6.81999969  54.02999878
C     7.25000000   7.35000038  52.78999710
C     8.19000053   7.81000042  51.88999939
C     9.59000015   7.63000011  52.06999969
C    13.76000023   7.49000025  52.75000000
C    14.40999985   8.19000053  51.70000076
C    15.73999977   8.57999992  51.65000153
C     5.78000021   7.51999950  52.47000122
H     5.42302752   7.00595951  51.57757187
H    10.24000072   8.76999950  50.33000183
H    11.73999977   6.34999990  54.43000031
H     9.43000031   6.12999964  55.15999603
H     6.98999977   6.71999979  54.84000397
H     7.83999968   8.30999947  50.98999786
H    16.15999985   9.03999996  50.75000000
H     5.12000036   7.37999964  53.33000183
H     5.68000031   8.57999992  52.21000290
S    17.09000015   7.26000023  55.12000275
C    19.77000046   7.99000025  54.54999924
C    18.44000053   7.97999954  54.20999908
C    17.97000122   8.53999996  52.97999954
C    18.88000107   9.06000042  52.08000183
C    20.27000046   9.06999969  52.35000229
C    21.25999832   9.59999943  51.47999573
C    22.60000038   9.44000053  51.72000122
C    23.01000214   8.73000050  52.88999939
C    22.09000015   8.23000050  53.76999664
C    20.69000053   8.39999962  53.55999756
C    16.54999924   8.27999973  52.75000000
C    15.93000031   7.60999966  53.82999802
C    14.59000015   7.22000027  53.83999634
C    24.43000031   8.22000027  53.01000214
H    24.77783394   8.36907101  54.03219986
H    20.10000038   7.34000015  55.35999680
H    18.60999870   9.52000046  51.12999725
H    20.81000137  10.08999920  50.61999893
H    23.35000038   9.65999985  50.97000122
H    22.36000061   7.64999962  54.65000153
H    14.17000008   6.85999966  54.78000259
H    25.03999901   8.80999947  52.30999756
H    24.47999954   7.14999962  52.78999710
