96

S    16.65999985  12.09000015  58.37999725
C    19.34999847  12.55000019  57.77000046
C    18.12000084  12.07999992  57.36999893
C    17.80999947  11.72000027  56.02000427
C    18.89000130  11.64000034  55.14999771
C    20.22000122  11.94000053  55.52999878
C    21.30000114  11.61000061  54.66999817
C    22.56999969  12.02000046  55.02999878
C    22.77000046  12.61999989  56.29000092
C    21.77000046  12.79000092  57.22000122
C    20.43000031  12.46999931  56.84999847
C    16.38000107  11.64000034  55.77000046
C    15.62999916  11.80999947  56.95999908
C    14.25000000  11.96000004  57.04000092
C    24.20000076  13.02000046  56.59000015
H    24.66767693  12.37517452  57.33403015
H    19.47999954  12.86999893  58.80000305
H    18.78000069  11.42000008  54.09000015
H    21.05999947  11.16000080  53.70999908
H    23.38000107  11.77000046  54.36000061
H    21.90999985  13.07999992  58.25000000
H    13.73999977  12.06999969  57.98999786
H    24.77999878  12.98999977  55.65999985
H    24.33000183  14.01999950  57.02000046
S    13.15999985  10.85000038  53.40999985
C    10.48999977  10.67000008  54.06000137
C    11.75000000  11.06999969  54.45999908
C    12.05999947  11.56999969  55.76000214
C    11.02000046  11.77000046  56.65000153
C     9.71000004  11.38000011  56.27999878
C     8.67999935  11.40999985  57.27000427
C     7.39000034  11.03000069  56.97999954
C     7.07999992  10.71000004  55.63000107
C     8.07999992  10.47999954  54.71000290
C     9.42000008  10.88000107  54.97000122
C    13.50000000  11.72999954  55.87999725
C    14.25000000  11.31999969  54.73999786
C    15.62999916  11.36999989  54.61999893
C     5.63000011  10.39999962  55.34000015
H     5.11767101  10.96925354  54.56439209
H    10.26999950  10.10000038  53.15999985
H    11.23999977  12.11999989  57.65999603
H     8.90999985  11.65999985  58.29999924
H     6.61000013  10.86999989  57.71999741
H     7.94000053  10.01000023  53.75000000
H    16.18000031  11.21000099  53.69999695
H     5.07999992  10.52000046  56.27999878
H     5.53999996   9.31999969  55.18000031
S    17.28000069  12.93000031  52.35000229
C    19.96999931  12.98999977  51.72000122
C    18.71000099  12.57999992  51.36000061
C    18.39999962  12.15999985  50.02999878
C    19.43000031  12.10000038  49.09999847
C    20.75000000  12.48999977  49.43000031
C    21.84999847  12.46999931  48.53000259
C    23.11000061  12.82999992  48.94000244
C    23.42000008  13.15000057  50.28999710
C    22.36000061  13.20000076  51.17000198
C    21.02000046  12.94000053  50.77000046
C    16.95999908  12.18999958  49.79000092
C    16.23999977  12.46000099  50.97999954
C    14.85999966  12.51000023  51.04999924
C    24.80999947  13.35999966  50.83000183
H    25.19365883  12.74898815  51.64705276
H    20.15999985  13.52000046  52.65999603
H    19.10000038  11.77999973  48.11999893
H    21.70999908  12.20999908  47.48000336
H    23.88999939  12.74000072  48.18999863
H    22.55000114  13.42000008  52.22000122
H    14.32000065  12.93000031  51.88999939
H    25.53999901  13.09999943  50.06000137
H    24.89000130  14.42000008  51.10000229
S    13.68999958  11.38000011  47.44999695
C    11.00999928  11.00999928  48.29999924
C    12.28999996  11.44999981  48.54000092
C    12.64999962  11.98999977  49.81999969
C    11.65999985  12.31999969  50.72000122
C    10.31000042  11.92000008  50.51000214
C     9.28999996  12.13000107  51.46999741
C     8.00000000  11.77999973  51.14999771
C     7.69000006  11.09000015  49.94999695
C     8.67999935  10.77999973  49.05000305
C    10.01999950  11.18000031  49.31000137
C    14.09999943  12.07999992  49.94999695
C    14.81999969  11.73999977  48.77999878
C    16.20000076  11.82999992  48.68000031
C     6.28000021  10.59999943  49.71000290
H     5.78079653  11.20617580  48.95406342
H    10.80000019  10.67000008  47.29000092
H    11.87000084  12.93000031  51.59000015
H     9.52000046  12.51999950  52.45999908
H     7.23000002  11.84999943  51.90999985
H     8.53999996  10.24000072  48.11999893
H    16.69000053  11.56999969  47.75000000
H     5.69000006  10.59000015  50.63999939
H     6.37000036   9.56999969  49.36000061
