96

S    16.45000076  12.60000038  58.81000137
C    19.13999939  12.89000034  58.11000061
C    17.88999939  12.43999958  57.77000046
C    17.56000137  11.84999943  56.51000214
C    18.57999992  11.72999954  55.58000183
C    19.90999985  12.11999989  55.87999725
C    21.02999878  11.97999954  55.02999878
C    22.23999977  12.51999950  55.40999985
C    22.49000168  13.17999935  56.63999939
C    21.45000076  13.25000000  57.52999878
C    20.17000008  12.75000000  57.15000153
C    16.10999870  11.78999996  56.33999634
C    15.36000061  12.15999985  57.48000336
C    13.96999931  12.25999928  57.51999664
C    23.88999939  13.53999996  57.08000183
H    24.20940971  12.92957115  57.92466354
H    19.36000061  13.36999989  59.06000137
H    18.52000046  11.19999981  54.62999725
H    20.90999985  11.63000011  54.00000000
H    23.08000183  12.30999947  54.75000000
H    21.54999924  13.71999931  58.50000000
H    13.36999989  12.65999985  58.31999969
H    24.65999985  13.43999958  56.31000137
H    23.87000084  14.56999969  57.45999908
S    13.01000023  11.28000069  53.79000092
C    10.34000015  10.95999908  54.40000153
C    11.56000042  11.44000053  54.79999924
C    11.84999943  11.72999954  56.17000198
C    10.77000046  11.82000065  57.02999878
C     9.48000050  11.39999962  56.63999939
C     8.38000011  11.38000011  57.55000305
C     7.09999990  11.07999992  57.15000153
C     6.84999990  10.65999985  55.81999969
C     7.94000053  10.43000031  55.00999832
C     9.23999977  10.95000076  55.30000305
C    13.28999996  11.87999916  56.35000229
C    14.04999924  11.54000092  55.20000076
C    15.43000031  11.39000034  55.19000244
C     5.46000004  10.26000023  55.37000275
H     5.04005051  10.77959824  54.50874710
H    10.14000034  10.72999954  53.36000061
H    10.98999977  12.25999928  58.00000000
H     8.56000042  11.75000000  58.55999756
H     6.32000017  11.05000019  57.90999985
H     7.65999985  10.01000023  54.05000305
H    16.00000000  11.25000000  54.27000046
H     4.80999994  10.46000004  56.23000336
H     5.49000025   9.19000053  55.13999939
S    17.05999947  13.12000084  52.51999664
C    19.78000069  13.23999977  52.00000000
C    18.52000046  12.94999981  51.52999878
C    18.23999977  12.43000031  50.22999573
C    19.29999924  12.23999977  49.36000061
C    20.62000084  12.55000019  49.75999832
C    21.77999878  12.38000011  48.95000076
C    23.05999947  12.56000042  49.43000031
C    23.31000137  13.05999947  50.72999954
C    22.19000053  13.30999947  51.49000168
C    20.85000038  13.04999924  51.07999802
C    16.79999924  12.31999969  50.02999878
C    16.03000069  12.82999992  51.10000229
C    14.65000057  12.75000000  51.12999725
C    24.76000023  13.35999966  51.04999924
H    25.14407539  12.81233692  51.91061020
H    19.97999954  13.61999989  53.00000000
H    19.20999908  11.87999916  48.34000015
H    21.63999939  11.94000053  47.97000122
H    23.88999939  12.43000031  48.73000336
H    22.39000130  13.94999981  52.35000229
H    14.01999950  13.05999947  51.95999908
H    25.38999939  13.20000076  50.17000198
H    24.70999908  14.42000008  51.33999634
S    13.68000031  11.13000011  47.65999603
C    10.93000031  11.07999992  48.25000000
C    12.20000076  11.51000023  48.56999969
C    12.53999901  12.06999969  49.84000397
C    11.49000072  12.39999962  50.68000031
C    10.14000034  12.05999947  50.40000153
C     9.11000061  12.36999989  51.33999634
C     7.82999992  12.00000000  51.02000427
C     7.53999996  11.18000031  49.89999771
C     8.55000019  10.92000008  48.99000168
C     9.89999962  11.30000019  49.20000076
C    13.96999931  12.28999996  49.99000168
C    14.73999977  11.82999992  48.89999771
C    16.13000107  11.75000000  48.94000244
C     6.06999969  10.90999985  49.69999695
H     5.62879848  11.45794392  48.86741257
H    10.72000027  10.65000057  47.28000259
H    11.56999969  12.82999992  51.66999817
H     9.36999989  12.71999931  52.32999802
H     7.07000017  12.36999989  51.70000076
H     8.30999947  10.44000053  48.04000092
H    16.69999886  11.23000050  48.16999817
H     5.45000029  11.11999989  50.58000183
H     5.97000027   9.82999992  49.54999924
