96

S    16.93000031  12.35999966  58.69999695
C    19.65999985  12.23999977  58.13999939
C    18.37000084  11.97999954  57.72999573
C    18.02999878  11.61999893  56.38999939
C    19.09000015  11.40999985  55.52999878
C    20.43000031  11.72999954  55.89000320
C    21.40999985  11.64000034  54.86999893
C    22.70000076  11.87000084  55.28999710
C    23.05000114  12.44999981  56.53999710
C    22.04000092  12.67000008  57.44999695
C    20.73999786  12.15000057  57.22999954
C    16.59000015  11.56000042  56.20999908
C    15.85000038  11.97999954  57.34000397
C    14.46000004  12.02000046  57.38999939
C    24.51000023  12.63000011  56.88999939
H    24.87209129  12.00521755  57.70647812
H    19.85000038  12.56000042  59.16999817
H    18.84000015  11.31999969  54.47999954
H    21.14999962  11.23000050  53.89999771
H    23.44000053  11.64999962  54.52000046
H    22.26000023  13.00000000  58.46000290
H    14.01000023  12.28999996  58.34999847
H    25.19000053  12.35999966  56.07999802
H    24.68000031  13.71000099  57.02000046
S    13.48999977  10.72999954  53.75000000
C    10.77000046  10.70000076  54.36000061
C    12.05999947  10.97000027  54.77000427
C    12.32999992  11.46000004  56.07999802
C    11.31000042  11.68000031  56.97999954
C     9.98000050  11.35000038  56.60999680
C     8.93999958  11.56000042  57.56000137
C     7.68000031  11.05000019  57.35000229
C     7.42999983  10.44999981  56.09000397
C     8.36999989  10.43000031  55.07999802
C     9.71000004  10.85000038  55.28999710
C    13.76999950  11.59000015  56.25000000
C    14.52999973  11.18999958  55.12000275
C    15.92000008  11.10000038  55.06999969
C     6.03999996   9.92999935  55.83000183
H     5.43702841  10.58262825  55.19865417
H    10.52000046  10.15999985  53.44999695
H    11.47999954  12.05000019  57.98999786
H     9.30000019  12.01000023  58.48999786
H     6.93000031  11.03000069  58.13000107
H     8.19999981   9.96999931  54.10999680
H    16.40999985  10.85999966  54.13000107
H     5.46000004   9.82999992  56.75000000
H     6.11999989   8.90999985  55.43000031
S    13.53000069   8.80000019  50.59999847
C    10.85999966   8.27000046  51.30000305
C    12.20000076   8.14999962  51.58000183
C    12.63000011   7.46000004  52.76000214
C    11.72999954   6.98999977  53.69999695
C    10.36000061   7.20000029  53.41999817
C     9.36999989   6.70000029  54.31000137
C     8.03999996   6.94000006  54.09000015
C     7.57999992   7.53000021  52.88000107
C     8.48999977   7.86999989  51.90000153
C     9.86999989   7.83999968  52.22000122
C    14.09000015   7.44000006  52.84000015
C    14.68999958   8.19999981  51.81000137
C    16.03999901   8.55000019  51.81999969
C     6.10000038   7.64999962  52.63999939
H     5.67494774   7.34537935  51.68363190
H    10.59999943   8.76999950  50.38000107
H    12.03999996   6.47000027  54.61000061
H     9.81000042   6.30000019  55.21999741
H     7.27999973   6.52999973  54.75999832
H     8.26000023   8.26000023  50.90999985
H    16.54000092   9.15000057  51.06999969
H     5.51999998   7.11000013  53.40000153
H     5.89999962   8.73000050  52.56000137
S    17.28999901   6.94999981  55.27000046
C    19.92000008   7.64999962  54.82999802
C    18.63000107   7.64999962  54.34000015
C    18.25000000   8.26000023  53.09999847
C    19.27000046   8.78999996  52.32999802
C    20.62000084   8.73999977  52.75000000
C    21.68999863   9.18000031  51.93000031
C    22.98999977   8.80000019  52.15000153
C    23.29999924   8.14000034  53.37999725
C    22.32999992   7.82999992  54.29999924
C    20.95999908   8.09000015  53.97999573
C    16.80999947   8.14999962  52.91999817
C    16.18000031   7.44000006  53.96999741
C    14.86999989   6.98999977  53.90999603
C    24.70000076   7.60999966  53.57999802
H    25.13294029   8.02874565  54.48846436
H    20.15999985   7.05999947  55.70999908
H    19.13999939   9.19000053  51.32999802
H    21.52000046   9.68999958  50.97999954
H    23.78000069   9.02999973  51.44000244
H    22.52000046   7.21000004  55.17000198
H    14.34000015   6.47000027  54.69999695
H    25.35000038   7.99000025  52.77999878
H    24.68000031   6.51999998  53.47999954
