96

S    17.02000046  12.00000000  58.36999893
C    19.63999939  12.43000031  57.50000000
C    18.37000084  11.96000004  57.22999954
C    18.02000046  11.54000092  55.90999985
C    18.96000099  11.42000008  54.89999771
C    20.29999924  11.76000023  55.20999908
C    21.38999939  11.36000061  54.38999939
C    22.70999908  11.50000000  54.75000000
C    23.02000046  12.22000027  55.93999863
C    22.00000000  12.61000061  56.77000046
C    20.62999916  12.35000038  56.49000168
C    16.59000015  11.31999969  55.84999847
C    15.90000057  11.54999924  57.06999969
C    14.52000046  11.68000031  57.05999756
C    24.47999954  12.50000000  56.19999695
H    24.84273720  11.91677666  57.04638290
H    19.88000107  12.77999973  58.50000000
H    18.78000069  10.81999969  54.01000214
H    21.09999847  10.88999939  53.46000290
H    23.47999954  11.18000031  54.05000305
H    22.21999931  12.94999981  57.77999878
H    13.96000004  12.17000008  57.85999680
H    25.00999832  12.13999939  55.31000137
H    24.63000107  13.55999947  56.44000244
S    13.35000038  10.52999973  53.47000122
C    10.62999916  10.59000015  54.20000076
C    11.94000053  10.90000057  54.47999954
C    12.31999969  11.46999931  55.73999786
C    11.31999969  11.78999996  56.63999939
C     9.98000050  11.39999962  56.40999603
C     8.89999962  11.56000042  57.32999802
C     7.63000011  11.09000015  57.09000015
C     7.28999996  10.47000027  55.86000061
C     8.27000046  10.40999985  54.88999939
C     9.59999943  10.82999992  55.14999771
C    13.76000023  11.38000011  55.91999817
C    14.47000027  10.93999958  54.78000259
C    15.85999966  10.93000031  54.72000122
C     5.95000029   9.82999992  55.59000015
H     5.43013477  10.34986496  54.78527451
H    10.54999924  10.14999962  53.20000076
H    11.64000034  12.18999958  57.60000229
H     9.11999989  11.97000027  58.30999756
H     6.94999981  11.13000011  57.94000244
H     8.09000015   9.84000015  53.97999573
H    16.31000137  10.47999954  53.83999634
H     5.35000038  10.11000061  56.47999573
H     5.89999962   8.75000000  55.44000244
S    13.09000015   8.38000011  50.43000031
C    10.40999985   8.09000015  51.18999863
C    11.73999977   7.86999989  51.46999741
C    12.20000076   7.26999998  52.68000031
C    11.26000023   6.80999994  53.59000397
C     9.88000011   6.94999981  53.34999847
C     8.90999985   6.44999981  54.27000046
C     7.57000017   6.61999989  54.03999710
C     7.13999987   7.14999962  52.80000305
C     8.05999947   7.68000031  51.93000031
C     9.47000027   7.63000011  52.15000153
C    13.64999962   7.31999969  52.81000137
C    14.26000023   7.97999954  51.70999908
C    15.55999947   8.46000004  51.73999786
C     5.69000006   6.98999977  52.37999725
H     5.35551977   7.38141346  51.41925812
H    10.05000019   8.60000038  50.30000305
H    11.54000092   6.38000011  54.54999924
H     9.28999996   5.80999947  55.06000137
H     6.90000010   6.11999989  54.73999786
H     7.69999981   8.15999985  51.03000259
H    15.88999939   9.04999924  50.89000320
H     5.56999969   5.89999962  52.32999802
H     4.97000027   7.23999977  53.16999817
S    16.97000122   6.84000015  55.07999802
C    19.62000084   7.37999964  54.41999817
C    18.29000092   7.57000017  54.13999939
C    17.79999924   8.25000000  52.97999954
C    18.78000069   8.76000023  52.15000153
C    20.15999985   8.69999981  52.43000031
C    21.07999992   9.15999985  51.44000244
C    22.43999863   8.94999981  51.55000305
C    22.84000015   8.19000053  52.68000031
C    22.00000000   7.62000036  53.60000229
C    20.59999847   7.90000010  53.54000092
C    16.36000061   8.09000015  52.83000183
C    15.76000023   7.35000038  53.88000107
C    14.44000053   6.90999985  53.88999939
C    24.31999969   7.90000010  52.83000183
H    24.84443092   8.41025734  53.63790512
H    19.93000031   6.61999989  55.13999939
H    18.45999908   9.26999950  51.25000000
H    20.61000061   9.63999939  50.59000015
H    23.19000053   9.32999992  50.86999893
H    22.40999985   7.07000017  54.43999863
H    13.99000072   6.34999990  54.69999695
H    24.77000046   8.11999989  51.86000061
H    24.43000031   6.84000015  53.09999847
