96

S    16.76000023  12.10000038  58.48999786
C    19.48999977  12.13999939  57.90999985
C    18.20999908  11.87999916  57.49000168
C    17.85000038  11.43000031  56.18000031
C    18.86999893  11.17000008  55.27999878
C    20.19000053  11.51000023  55.63999939
C    21.28999901  11.42000008  54.73999786
C    22.55000114  11.79999924  55.13000107
C    22.89999962  12.18999958  56.45000076
C    21.86000061  12.35000038  57.32999802
C    20.52999878  12.01000023  56.95000076
C    16.39999962  11.47999954  55.97999954
C    15.65999985  11.84999943  57.12999725
C    14.27000046  11.79999924  57.16999817
C    24.25000000  12.77999973  56.76000214
H    24.90397453  12.11891747  57.32867432
H    19.62000084  12.58999920  58.88999939
H    18.64999962  11.00999928  54.22999954
H    21.14999962  11.00999928  53.74000168
H    23.32999992  11.80999947  54.36999893
H    22.01000023  12.64000034  58.36999893
H    13.76000023  12.25000000  58.02000046
H    24.84999847  12.97000027  55.86000061
H    24.01000023  13.71000099  57.29000092
S    13.20000076  10.51000023  53.54999924
C    10.51000023  10.36000061  54.23999786
C    11.80999947  10.59999943  54.64000320
C    12.15999985  11.09000015  55.93999863
C    11.10999966  11.26999950  56.83000183
C     9.77999973  10.90000057  56.52000046
C     8.73999977  10.98999977  57.49000168
C     7.42999983  10.72000027  57.15999985
C     7.09000015  10.34999943  55.83000183
C     8.09000015  10.24000072  54.88999939
C     9.47000027  10.39000034  55.20999908
C    13.59000015  11.31999969  56.04000092
C    14.29999924  10.98999977  54.85000229
C    15.69000053  11.05000019  54.86000061
C     5.61999989  10.21000004  55.52000046
H     5.34235859  10.70121193  54.58740997
H    10.22999954  10.03000069  53.25000000
H    11.25000000  11.61000061  57.84999847
H     8.97000027  11.38000011  58.47999954
H     6.63000011  10.98000050  57.84000015
H     7.86999989  10.10000038  53.83999634
H    16.26000023  10.67000008  54.02000046
H     4.92000008  10.51000023  56.31000137
H     5.42000008   9.13000011  55.40999985
S    13.78000069   8.69999981  50.65999985
C    11.13000011   8.10999966  51.33999634
C    12.48000050   7.90999985  51.56000137
C    12.93000031   7.18999958  52.70999908
C    12.03999996   6.56000042  53.56999969
C    10.67000008   6.69000053  53.26000214
C     9.64999962   6.15999985  54.10999680
C     8.30999947   6.28000021  53.83999634
C     7.83999968   6.94000006  52.67000198
C     8.76999950   7.63999987  51.93999863
C    10.17000008   7.50999975  52.18999863
C    14.34999943   7.40999985  52.93000031
C    14.92000008   8.23999977  51.93999863
C    16.25000000   8.63000011  52.02000046
C     6.35999966   7.14999962  52.47000122
H     6.11127472   7.22106409  51.41114044
H    10.77999973   8.69000053  50.48999786
H    12.44999981   6.01999998  54.41999817
H     9.94999981   5.64000034  55.00999832
H     7.59999990   6.01000023  54.61999893
H     8.52000046   8.31999969  51.12999725
H    16.77000046   9.26000023  51.31000137
H     5.79999971   6.30000019  52.88999939
H     5.91000032   7.95000029  53.06000137
S    17.57999992   6.77999973  55.27999878
C    20.23999977   7.53000021  54.79999924
C    18.90999985   7.59999990  54.43999863
C    18.46999931   8.22000027  53.22999954
C    19.42000008   8.80999947  52.41000366
C    20.79000092   8.76000023  52.72999573
C    21.68999863   9.19000053  51.72000122
C    23.03999901   9.13000011  52.00000000
C    23.45000076   8.69999981  53.29000092
C    22.60000038   8.14999962  54.22000122
C    21.21000099   8.13000011  53.95999908
C    17.02999878   8.14000034  53.08000183
C    16.42000008   7.26999998  54.02999878
C    15.11000061   6.81999969  53.95000076
C    24.87999916   9.02999973  53.64999771
H    25.29866600   8.44102859  54.46604538
H    20.55000114   6.90999985  55.63999939
H    19.23999977   9.25000000  51.44000244
H    21.22999954   9.72999954  50.89000320
H    23.64000130   9.81999969  51.42000198
H    22.98999977   7.73000002  55.14999771
H    14.65999985   6.09000015  54.61999893
H    24.76000023  10.07999992  53.95000076
H    25.52000046   9.02999973  52.77000046
