96

S    16.29999924  11.98999977  58.43000031
C    19.03000069  12.18000031  57.80000305
C    17.75000000  11.89000034  57.39999771
C    17.40999985  11.43000031  56.09000397
C    18.45000076  11.11999989  55.22999573
C    19.78999901  11.42000008  55.56999969
C    20.85000038  11.23999977  54.64000320
C    22.11999893  11.64999962  54.98000336
C    22.40999985  12.23999977  56.24000168
C    21.40999985  12.38000011  57.18000031
C    20.07999802  11.97000027  56.86999893
C    15.98000050  11.36999989  55.86000061
C    15.26999950  11.84000015  57.00000000
C    13.88000011  11.89000034  57.09999847
C    23.85999870  12.56000042  56.49000168
H    24.27205086  12.02007103  57.34252167
H    19.23999977  12.61000061  58.77999878
H    18.30000114  10.78999996  54.20000076
H    20.66999817  10.86999989  53.62999725
H    22.88000107  11.59999943  54.20999908
H    21.63999939  12.79999924  58.15000153
H    13.48000050  12.28999996  58.02999878
H    24.37999916  12.20000076  55.59999847
H    24.02000046  13.63999939  56.65000153
S    12.72999954  10.59999943  53.54000092
C    10.03000069  10.72000027  54.25000000
C    11.33999920  10.90000057  54.61000061
C    11.67000008  11.36000061  55.91999817
C    10.67000008  11.73999977  56.79999924
C     9.32999992  11.43000031  56.47999573
C     8.23999977  11.64999962  57.36999893
C     6.94000006  11.47999954  56.95999908
C     6.60000038  10.98999977  55.66999817
C     7.62000036  10.77999973  54.77000427
C     8.97000027  10.95000076  55.17000198
C    13.12000084  11.46000004  56.00000000
C    13.83999920  11.03999996  54.85000229
C    15.21999931  10.93000031  54.77000427
C     5.13000011  10.81999969  55.38000107
H     4.84494114  11.21195602  54.40367508
H     9.81999969  10.32999992  53.25000000
H    10.97000027  12.10999966  57.77000046
H     8.34000015  12.01000023  58.39000320
H     6.19999981  11.64999962  57.74000168
H     7.50000000  10.29999924  53.80000305
H    15.70000076  10.42000008  53.94000244
H     4.55000019  11.35000038  56.13999939
H     4.85000038   9.75000000  55.38999939
S    16.93000031  12.97999954  52.47000122
C    19.70000076  12.76999950  52.00000000
C    18.40999985  12.69000053  51.52999878
C    18.12999916  12.20000076  50.21999741
C    19.15999985  11.78999996  49.40000153
C    20.50000000  11.97999954  49.80999756
C    21.56999969  11.92999935  48.87000275
C    22.80999947  12.38999939  49.20999908
C    23.08000183  12.86999893  50.52000046
C    22.09000015  12.93000031  51.46999741
C    20.76999855  12.53999901  51.11000061
C    16.69000053  12.10000038  49.99000168
C    15.90999985  12.53000069  51.09000397
C    14.52000046  12.44999981  51.18000031
C    24.47999954  13.27000046  50.93000031
H    24.87588692  12.78220844  51.82074738
H    19.85999870  13.09999943  53.02000046
H    18.96000099  11.54000092  48.36000061
H    21.21000099  11.56999969  47.90999985
H    23.57000160  12.35000038  48.43999863
H    22.21999931  13.30000019  52.49000168
H    14.04000092  12.71000004  52.11999893
H    25.13000107  12.97999954  50.10000229
H    24.56000137  14.34999943  51.10000229
S    13.59000015  11.36000061  47.49000168
C    10.80999947  11.49000072  48.01000214
C    12.10999966  11.63000011  48.43000031
C    12.38000011  11.94000053  49.79999924
C    11.32999992  12.18000031  50.66999817
C    10.00000000  11.98999977  50.22999573
C     8.93999958  12.13999939  51.16000366
C     7.65999985  11.72999954  50.86999893
C     7.42999983  11.25000000  49.54999924
C     8.36999989  11.14999962  48.54999924
C     9.68999958  11.57999992  48.88000107
C    13.81000042  12.02999973  50.04000092
C    14.60000038  11.69999981  48.90999603
C    15.98999977  11.57999992  48.89999771
C     6.05000019  10.69000053  49.29000092
H     5.52402306  11.29416370  48.55078888
H    10.69000053  11.03000069  47.04000092
H    11.59999943  12.56000042  51.65000153
H     9.26999950  12.46000099  52.15000153
H     6.88000011  11.77999973  51.62000275
H     8.14000034  10.80999947  47.54000092
H    16.46999931  11.23000050  48.00000000
H     5.59000015  10.70000076  50.27999878
H     6.23000050   9.67000008  48.95000076
