96

S    16.38000107  12.34000015  58.46000290
C    19.03000069  12.38000011  57.97000122
C    17.79999924  12.03999996  57.43999863
C    17.43000031  11.59000015  56.13999939
C    18.50000000  11.42000008  55.27000046
C    19.78999901  11.72000027  55.76000214
C    20.84000015  11.59000015  54.80999756
C    22.11999893  11.94000053  55.15999603
C    22.46000099  12.51000023  56.42000198
C    21.47000122  12.53000069  57.36999893
C    20.10999870  12.20999908  57.08000183
C    15.98999977  11.52999973  55.97999954
C    15.26999950  11.87000084  57.15999985
C    13.90999985  11.67000008  57.36999893
C    23.84000015  13.07999992  56.68000031
H    24.37110329  12.42851353  57.37397003
H    19.15999985  12.71999931  58.99000168
H    18.42000008  11.28000069  54.20000076
H    20.62999916  11.14999962  53.83999634
H    22.88000107  11.56999969  54.47999954
H    21.71999931  12.96000004  58.34000015
H    13.45000076  11.87000084  58.33000183
H    24.40999985  13.19000053  55.73999786
H    23.68999863  14.07999992  57.09999847
S    12.74000072  10.90000057  53.63999939
C    10.03000069  10.69000053  54.38000107
C    11.32999992  10.98999977  54.71000290
C    11.71000004  11.36999989  56.04000092
C    10.71000004  11.51000023  56.97999954
C     9.35000038  11.23999977  56.68000031
C     8.30000019  11.23000050  57.63999939
C     7.02000046  10.84000015  57.31999969
C     6.65999985  10.59000015  55.97000122
C     7.63999987  10.57999992  55.00999832
C     8.98999977  10.90000057  55.33000183
C    13.15999985  11.46000004  56.20999908
C    13.85000038  11.16000080  55.00000000
C    15.22999954  11.10999966  54.87999725
C     5.21000004  10.32999992  55.63000107
H     4.85466242  10.75640488  54.69190979
H     9.84000015  10.26000023  53.40000153
H    11.05000019  11.76000023  57.97999954
H     8.60999966  11.39999962  58.67000198
H     6.30000019  10.76000023  58.13000107
H     7.46000004  10.38000011  53.95999908
H    15.85999966  10.85000038  54.03999710
H     4.57999992  10.55999947  56.50000000
H     5.12000036   9.26000023  55.41999817
S    13.15000057   8.90999985  50.61999893
C    10.57000065   8.14999962  51.32999802
C    11.90999985   8.15999985  51.65000153
C    12.44999981   7.55999994  52.81999969
C    11.59000015   6.97000027  53.72000122
C    10.19000053   7.03999996  53.50999832
C     9.23999977   6.40999985  54.36000061
C     7.88000011   6.42000008  54.15999985
C     7.39000034   7.18999958  53.06999969
C     8.26000023   7.81000042  52.19999695
C     9.67000008   7.64999962  52.30999756
C    13.89000034   7.78999996  52.88999939
C    14.42999935   8.43999958  51.75000000
C    15.76000023   8.84000015  51.72999954
C     5.89999962   7.26000023  52.88000107
H     5.50990772   7.34511089  51.86576080
H    10.25000000   8.78000069  50.51000214
H    12.00000000   6.19000006  54.36000061
H     9.70000076   5.91000032  55.20999908
H     7.30000019   6.01000023  54.98000336
H     8.00000000   8.48999977  51.39999771
H    16.21999931   9.23999977  50.83000183
H     5.40999985   6.39999962  53.36999893
H     5.56999969   8.15999985  53.41999817
S    17.34000015   7.44000006  55.07999802
C    19.96000099   8.01999950  54.27000046
C    18.60999870   8.14999962  54.06000137
C    18.09000015   8.64999962  52.83000183
C    18.93000031   9.01000023  51.79000092
C    20.31999969   8.92000008  52.02999878
C    21.28999901   9.30000019  51.05999756
C    22.60999870   9.51000023  51.36000061
C    23.12999916   9.04999924  52.60000229
C    22.26000023   8.51000023  53.52000427
C    20.86999893   8.38999939  53.25000000
C    16.63999939   8.47999954  52.76000214
C    16.10000038   7.75000000  53.85000229
C    14.75000000   7.44000006  53.94000244
C    24.54000092   9.43000031  53.01000214
H    24.91090965   8.84510422  53.85168076
H    20.39999962   7.68000031  55.20000076
H    18.51000023   9.42000008  50.87999725
H    20.95000076   9.73999977  50.12000275
H    23.29000092  10.05000019  50.70999908
H    22.52000046   8.30999947  54.55999756
H    14.23999977   6.98000002  54.79000092
H    24.56999969  10.48999977  53.29999924
H    25.31999969   9.35000038  52.25000000
