96

S    16.64999962  12.32999992  58.30999756
C    19.36000061  12.61000061  57.56999969
C    18.07999992  12.18000031  57.28000259
C    17.69000053  11.75000000  55.97000122
C    18.65999985  11.59999943  55.00000000
C    19.98999977  12.01000023  55.26000214
C    21.04999924  11.69000053  54.36000061
C    22.36999893  11.92999935  54.65000153
C    22.69000053  12.56999969  55.86999893
C    21.70000076  12.88000011  56.77999878
C    20.34000015  12.53000069  56.55000305
C    16.25000000  11.61999893  55.80999756
C    15.53999996  12.00000000  56.97000122
C    14.17000008  12.22000027  56.97999954
C    24.11000061  12.86999893  56.29000092
H    24.44419479  12.09495068  56.97972107
H    19.72999954  12.98999977  58.52000427
H    18.45999908  11.05999947  54.06999969
H    20.72000122  11.26999950  53.40999985
H    23.16999817  11.63000011  53.96999741
H    21.94999886  13.21000004  57.78999710
H    13.69999981  12.39999962  57.94000244
H    24.80999947  12.94000053  55.44000244
H    24.30000114  13.83999920  56.76000214
S    13.02999973  10.88999939  53.43000031
C    10.32999992  10.75000000  54.20999908
C    11.64000034  11.02000046  54.52000046
C    12.00000000  11.57999992  55.79000092
C    11.03000069  11.72999954  56.76000214
C     9.70000076  11.31000042  56.53999710
C     8.65999985  11.36999989  57.50000000
C     7.36999989  10.98000050  57.22999954
C     7.00000000  10.52999973  55.93000031
C     8.01000023  10.36999893  55.00999832
C     9.35000038  10.80000019  55.24000168
C    13.43000031  11.84999943  55.84999847
C    14.14999962  11.39999962  54.71000290
C    15.53999996  11.31999969  54.64000320
C     5.55999994  10.21000004  55.59000015
H     5.10351610  10.87332726  54.85534286
H    10.10000038  10.50000000  53.18000031
H    11.19999981  12.20999908  57.71999741
H     8.97999954  11.71000004  58.48999786
H     6.67000008  10.98999977  58.06000137
H     7.81000042   9.98000050  54.02000046
H    15.98999977  11.00000000  53.69999695
H     5.01999950  10.29999924  56.53999710
H     5.51000023   9.15000057  55.31000137
S    17.02000046  13.12000084  52.42000198
C    19.69000053  13.31999969  51.59000015
C    18.45999908  12.72999954  51.45999908
C    18.09999847  12.02999973  50.26000214
C    19.06999969  11.96000004  49.27999878
C    20.42000008  12.30000019  49.52999878
C    21.53000069  11.95000076  48.69999695
C    22.85000038  12.22000027  48.97999573
C    23.12999916  13.04999924  50.08999634
C    22.13000107  13.35000038  50.98999786
C    20.76999855  13.03999996  50.72000122
C    16.65999985  11.84000015  50.13000107
C    15.93000031  12.43000031  51.18999863
C    14.56999969  12.68000031  51.10000229
C    24.57999992  13.43999958  50.28999710
H    25.02118111  12.71418667  50.97311783
H    19.90999985  14.01999950  52.39999771
H    18.81000137  11.51000023  48.33000183
H    21.38000107  11.47999954  47.72999573
H    23.62999916  12.23000050  48.22999954
H    22.36999893  13.78999901  51.95999908
H    14.09000015  13.30999947  51.84999847
H    25.06999969  13.43999958  49.31000137
H    24.82000160  14.45000076  50.65000153
S    13.43999958  11.07999992  47.67000198
C    10.71000004  11.13000011  48.27000046
C    11.98999977  11.49000072  48.61999893
C    12.35000038  12.02999973  49.88999939
C    11.35000038  12.28999996  50.81999969
C    10.01999950  11.92000008  50.51000214
C     8.97000027  12.05000019  51.45999908
C     7.67000008  11.69999981  51.17000198
C     7.35000038  11.11999989  49.91000366
C     8.34000015  11.00000000  48.95999908
C     9.68999958  11.32999992  49.23999786
C    13.78999901  12.13000107  50.07999802
C    14.51000023  11.61999893  48.96999741
C    15.90000057  11.47999954  49.02000046
C     5.97000027  10.62000084  49.54000092
H     5.44326019  11.34604740  48.92072678
H    10.52000046  10.60999966  47.34000397
H    11.57999992  12.69999981  51.79999924
H     9.22999954  12.46999931  52.43000031
H     6.90000010  11.84000015  51.91999817
H     8.13000011  10.39999962  48.08000183
H    16.40999985  11.21999931  48.09999847
H     5.40000010  10.42000008  50.45999908
H     6.07999992   9.64999962  49.05000305
