96

S    16.65999985  12.28999996  58.40999985
C    19.36000061  12.13000107  57.76000214
C    18.04999924  11.92999935  57.37999725
C    17.64999962  11.49000072  56.07999802
C    18.64999962  11.18000031  55.17000198
C    19.98999977  11.42000008  55.52999878
C    21.02999878  11.30000019  54.56999969
C    22.34000015  11.63000011  54.84000397
C    22.67000008  12.27000046  56.06999969
C    21.75000000  12.28000069  57.09000015
C    20.39999962  11.90000057  56.83000183
C    16.20000076  11.35000038  56.00999832
C    15.51000023  11.85999966  57.12999725
C    14.11999893  11.92000008  57.15999985
C    24.07999992  12.68000031  56.42000198
H    24.53583145  12.07459831  57.20346069
H    19.55000114  12.65999985  58.68999863
H    18.42000008  10.69000053  54.22999954
H    20.79000092  11.21999931  53.50999832
H    23.08000183  11.42000008  54.08000183
H    22.06999969  12.71999931  58.02999878
H    13.50000000  12.23999977  58.00000000
H    24.79000092  12.56999969  55.59000015
H    24.04999924  13.76000023  56.59999847
S    13.17999935  10.42000008  53.53000259
C    10.51000023  10.32999992  54.16999817
C    11.77000046  10.67999935  54.58000183
C    12.05000019  11.21999931  55.86999893
C    10.98999977  11.49000072  56.72999954
C     9.68999958  11.10000038  56.35000229
C     8.56000042  11.49000072  57.12999725
C     7.28999996  11.25000000  56.65999985
C     7.07000017  10.48999977  55.47999954
C     8.10999966  10.11999989  54.65999985
C     9.42000008  10.50000000  55.06999969
C    13.48000050  11.47999954  56.00000000
C    14.18000031  11.00999928  54.86999893
C    15.57000065  10.97000027  54.81999969
C     5.69999981   9.98000050  55.12000275
H     5.01807070  10.71165276  54.68669128
H    10.34999943   9.89000034  53.18999863
H    11.06999969  11.96000004  57.70000076
H     8.78000069  12.10999966  58.00000000
H     6.47000027  11.68000031  57.23999786
H     7.95000029   9.52999973  53.75999832
H    16.14999962  10.57999992  53.97999573
H     5.17000008   9.55999947  55.98999786
H     5.86000013   9.25000000  54.31999969
S    17.09000015  12.79000092  52.50999832
C    19.72999954  12.82999992  51.77000046
C    18.44000053  12.57999992  51.37000275
C    18.07999992  12.02999973  50.10000229
C    19.11999893  11.77000046  49.22000122
C    20.43000031  12.20000076  49.54000092
C    21.54999924  11.89000034  48.72000122
C    22.86999893  12.10000038  49.03999710
C    23.12000084  12.81999969  50.24000168
C    22.13000107  13.09000015  51.13999939
C    20.79000092  12.71000004  50.84000015
C    16.63999939  11.87000084  50.04000092
C    15.97000027  12.28000069  51.23000336
C    14.59000015  12.27000046  51.38000107
C    24.56000137  13.22999954  50.47000122
H    24.92916679  12.78273964  51.39291763
H    20.02000046  13.30999947  52.70000076
H    18.98999977  11.13999939  48.34000015
H    21.31999969  11.42000008  47.77000046
H    23.71000099  11.67000008  48.50999832
H    22.29000092  13.48000050  52.14000320
H    14.04999924  12.46000099  52.29999924
H    25.23999977  12.96000004  49.65000153
H    24.70000076  14.32000065  50.54000092
S    13.32999992  11.26999950  47.75000000
C    10.65999985  11.18000031  48.54999924
C    11.97000027  11.49000072  48.86000061
C    12.32999992  11.84000015  50.20000076
C    11.28000069  11.90000057  51.10000229
C     9.92000008  11.69000053  50.77999878
C     8.82999992  11.73999977  51.69000244
C     7.51999950  11.59999943  51.30000305
C     7.17999983  11.21000099  49.97000122
C     8.22000027  11.03999996  49.08000183
C     9.56999969  11.28999901  49.45000076
C    13.78000069  11.97000027  50.27999878
C    14.45000076  11.59999943  49.09000015
C    15.84000015  11.50000000  48.95999908
C     5.73999977  10.90000057  49.65000153
H     5.36922598  11.58450603  48.88705826
H    10.42000008  10.70000076  47.61000061
H    11.46000004  12.10000038  52.15999985
H     9.11999989  12.01000023  52.70999908
H     6.77999973  11.82000065  52.05999756
H     8.01000023  10.47000027  48.18000031
H    16.42000008  11.35000038  48.06000137
H     5.07000017  11.03000069  50.51000214
H     5.65000010   9.85999966  49.29000092
