96

S    16.70999908  12.79999924  58.61000061
C    19.40000153  12.96000004  57.83000183
C    18.11000061  12.58999920  57.54000092
C    17.84000015  11.97999954  56.26999664
C    18.81999969  11.75000000  55.31999969
C    20.15999985  12.02000046  55.66999817
C    21.19999886  11.82000065  54.72000122
C    22.52000046  12.02999973  55.00999832
C    22.80999947  12.58999920  56.29000092
C    21.81999969  12.94000053  57.18000031
C    20.45000076  12.64999962  56.93000031
C    16.39000130  11.84999943  56.14999771
C    15.65999985  12.23000050  57.29999924
C    14.27999973  12.34000015  57.31999969
C    24.20999908  13.09999943  56.56999969
H    24.61536789  12.46705437  57.35940170
H    19.63999939  13.52000046  58.73000336
H    18.53999901  11.31999969  54.36000061
H    20.96999931  11.69000053  53.67000198
H    23.26000023  12.02999973  54.20999908
H    22.04999924  13.56999969  58.02999878
H    13.71000099  12.81999969  58.11000061
H    24.77999878  12.94999981  55.63999939
H    24.13999939  14.17000008  56.79000092
S    13.26000023  10.77000046  53.83999634
C    10.47999954  11.00999928  54.36000061
C    11.78999996  11.23000050  54.72000122
C    12.15000057  11.87999916  55.93999863
C    11.13000011  12.27000046  56.79000092
C     9.77999973  11.95000076  56.49000168
C     8.78000069  12.00000000  57.50000000
C     7.46000004  11.69999981  57.29000092
C     7.11999989  10.95999908  56.11999893
C     8.09000015  10.80000019  55.14999771
C     9.43000031  11.23999977  55.28999710
C    13.57999992  11.85999966  56.19999695
C    14.34000015  11.38000011  55.10000229
C    15.72000027  11.44000053  54.99000168
C     5.68000031  10.59000015  55.86999893
H     5.28152275  11.13790703  55.01611710
H    10.31999969  10.64000034  53.34999847
H    11.40999985  12.53999901  57.80000305
H     8.97999954  12.34000015  58.52000427
H     6.65999985  11.72000027  58.02999878
H     7.77999973  10.31999969  54.22000122
H    16.22999954  11.06999969  54.09999847
H     5.09000015  10.67000008  56.79000092
H     5.69999981   9.53999996  55.54999924
S    13.63999939   8.82999992  50.68000031
C    10.97000027   8.50000000  51.44000244
C    12.30000019   8.23999977  51.68000031
C    12.75000000   7.65999985  52.90999985
C    11.79999924   7.20000029  53.80000305
C    10.40999985   7.40000010  53.59000397
C     9.44000053   6.77999973  54.43000031
C     8.09000015   6.89000034  54.20999908
C     7.72000027   7.76999998  53.15999985
C     8.60999966   8.32999992  52.28000259
C    10.01000023   8.14000034  52.42000198
C    14.19999981   7.76000023  53.06000137
C    14.80000019   8.38000011  51.93999863
C    16.17000008   8.63000011  51.90999985
C     6.28999996   8.03999996  52.74000168
H     5.89971781   7.49360514  51.88137817
H    10.62000084   9.04999924  50.56000137
H    12.05999947   6.54999971  54.62999725
H     9.90999985   6.32000017  55.28999710
H     7.40000010   6.24000025  54.73999786
H     8.30999947   8.97000027  51.45000076
H    16.55999947   9.19999981  51.06999969
H     5.69000006   7.97999954  53.64999771
H     6.24000025   9.10000038  52.47000122
S    17.43000031   7.35000038  55.45000076
C    20.06000137   8.06999969  54.92000198
C    18.73999977   8.11999989  54.52999878
C    18.29000092   8.64000034  53.27999878
C    19.22999954   9.11000061  52.36999893
C    20.59999847   9.06000042  52.70999908
C    21.63000107   9.43000031  51.79000092
C    22.95000076   9.25000000  52.11000061
C    23.36999893   8.82999992  53.40000153
C    22.39999962   8.48999977  54.31000137
C    21.01000023   8.60000038  54.01000214
C    16.88999939   8.30999947  53.06999969
C    16.28000069   7.57999992  54.12000275
C    14.94999981   7.16000032  54.06999969
C    24.77999878   8.32999992  53.62999725
H    25.14348793   8.74337864  54.57078934
H    20.35000038   7.46000004  55.77000046
H    18.85000038   9.34000015  51.38000107
H    21.31000137   9.75000000  50.79999924
H    23.62999916   9.18000031  51.25999832
H    22.69000053   8.00000000  55.24000168
H    14.48999977   6.74000025  54.95999908
H    25.39999962   8.73999977  52.81999969
H    24.63999939   7.23999977  53.60000229
