96

S    17.02000046  12.10999966  58.70999908
C    19.65999985  12.35000038  57.88000107
C    18.38000107  11.96000004  57.58999634
C    17.95999908  11.36999989  56.35000229
C    18.86999893  11.26000023  55.31999969
C    20.17999840  11.72000027  55.59000015
C    21.14999962  11.71000004  54.54000092
C    22.39999962  12.23999977  54.75000000
C    22.79000092  12.64000034  56.04999924
C    21.94999886  12.65999985  57.14000320
C    20.63999939  12.17000008  56.86999893
C    16.52000046  11.13999939  56.33999634
C    15.82999992  11.61000061  57.49000168
C    14.47000027  11.84999943  57.47000122
C    24.23999977  13.01000023  56.29000092
H    24.67239189  12.50672340  57.15478516
H    19.93999863  12.76999950  58.83999634
H    18.55999947  10.73999977  54.41999817
H    20.88000107  11.49000072  53.50999832
H    23.11000061  12.25000000  53.92000198
H    22.11000061  12.89000034  58.18999863
H    14.04000092  12.17000008  58.43000031
H    24.72999954  12.79999924  55.33000183
H    24.26000214  14.07999992  56.50000000
S    13.38999939  10.71000004  53.80000305
C    10.65999985  10.80999947  54.36000061
C    11.95000076  11.02000046  54.79999924
C    12.28000069  11.51999950  56.10000229
C    11.21000099  11.61999893  56.95999908
C     9.85999966  11.50000000  56.52999878
C     8.82000065  11.51999950  57.50000000
C     7.55000019  11.19999981  57.09000015
C     7.17999983  10.93000031  55.75000000
C     8.19999981  10.80000019  54.84000397
C     9.55000019  11.13999939  55.18000031
C    13.71999931  11.59999943  56.31999969
C    14.42999935  11.13000011  55.18000031
C    15.80000019  10.88999939  55.15999603
C     5.73999977  10.52000046  55.50000000
H     5.30573082  10.97562695  54.61010361
H    10.50000000  10.36000061  53.39000320
H    11.36000061  11.85999966  58.01000214
H     9.09000015  11.61000061  58.54999924
H     6.80000019  11.06999969  57.85999680
H     7.96000004  10.29999924  53.90999603
H    16.28999901  10.65999985  54.22999954
H     5.09000015  10.72000027  56.36000061
H     5.79999971   9.44999981  55.27000046
S    17.52000046  12.41000080  52.44999695
C    20.15999985  12.76999950  51.59000015
C    18.88000107  12.34000015  51.31999969
C    18.45999908  12.05999947  49.97000122
C    19.40999985  11.98999977  48.96999741
C    20.78000069  12.23000050  49.22999954
C    21.84000015  11.94000053  48.31999969
C    23.16999817  12.07999992  48.63999939
C    23.47999954  12.51000023  49.95999908
C    22.50000000  12.84000015  50.86999893
C    21.12999916  12.65999985  50.56000137
C    17.01000023  12.02000046  49.88999939
C    16.36000061  12.18000031  51.12999725
C    14.98000050  12.25000000  51.27999878
C    24.84000015  13.02999973  50.34000015
H    25.20166969  12.60450745  51.27608490
H    20.30999947  13.17999935  52.57999802
H    19.15999985  11.69000053  47.95999908
H    21.51000023  11.67000008  47.30999756
H    23.92000008  12.03999996  47.85999680
H    22.80999947  13.19000053  51.86000061
H    14.57999992  12.51999950  52.25000000
H    25.55000114  12.81999969  49.52999878
H    24.86000061  14.11999893  50.47999954
S    13.66000080  11.64000034  47.60000229
C    10.95999908  11.64000034  48.34000015
C    12.28000069  11.82000065  48.69999695
C    12.71999931  12.05999947  50.04000092
C    11.72999954  12.15999985  50.98999786
C    10.36000061  11.97000027  50.68000031
C     9.32999992  12.13999939  51.63999939
C     8.02999973  11.97999954  51.22000122
C     7.63999987  11.51999950  49.93999863
C     8.60999966  11.39999962  48.95999908
C     9.96000004  11.59999943  49.34000015
C    14.17000008  12.02000046  50.15999603
C    14.82999992  11.92999935  48.89999771
C    16.21000099  11.80999947  48.75999832
C     6.21999979  11.11999989  49.61000061
H     5.84326267  11.63890171  48.72857666
H    10.80999947  11.42000008  47.29000092
H    12.01000023  12.25999928  52.04000092
H     9.46000004  12.50000000  52.65999603
H     7.32999992  11.97000027  52.05999756
H     8.46000004  11.36000061  47.88999939
H    16.59000015  11.51000023  47.78999710
H     5.61999989  11.23000050  50.52000046
H     6.21999979  10.06000042  49.31000137
