96

S    16.59000015  12.18000031  58.34000015
C    19.29000092  12.30000019  57.63999939
C    18.02000046  11.84000015  57.36000061
C    17.65999985  11.26000023  56.10000229
C    18.70000076  11.00000000  55.21999741
C    20.05000114  11.36999989  55.48999786
C    21.07999992  11.31000042  54.51000214
C    22.32000160  11.87000084  54.73999786
C    22.65999985  12.34000015  56.04000092
C    21.65999985  12.48000050  56.97999954
C    20.32999992  12.05000019  56.72000122
C    16.21999931  11.23000050  55.89000320
C    15.52000046  11.78999996  56.97999954
C    14.14000034  11.90999985  57.05999756
C    24.02000046  12.89999962  56.38999939
H    24.55477142  12.18697357  57.01746750
H    19.45000076  12.64000034  58.66000366
H    18.51000023  10.55999947  54.25000000
H    20.79000092  10.90000057  53.54999924
H    22.96999931  12.03999996  53.88999939
H    21.77000046  13.07999992  57.88000107
H    13.64999962  12.18000031  57.98999786
H    24.47999954  13.00000000  55.40000153
H    23.84000015  13.82999992  56.93999863
S    12.98999977  10.47000027  53.53000259
C    10.31000042  10.60999966  54.13999939
C    11.57999992  11.00999928  54.45999908
C    11.94000053  11.52999973  55.75000000
C    10.93000031  11.69000053  56.69000244
C     9.59999943  11.39999962  56.30000305
C     8.64000034  11.43000031  57.35000229
C     7.36000013  11.02000046  57.06999969
C     6.96000004  10.59999943  55.77000046
C     7.88999987  10.47000027  54.75999832
C     9.22999954  10.85999966  55.01999664
C    13.38000107  11.52999973  55.93999863
C    14.06999969  10.90999985  54.86999893
C    15.46000004  10.81999969  54.79000092
C     5.53999996  10.14000034  55.52000046
H     5.08406258  10.67430210  54.68648911
H    10.10000038  10.03999901  53.23999786
H    11.17000008  11.87000084  57.72999573
H     8.92000008  11.59999943  58.39000320
H     6.57999992  11.00000000  57.81999969
H     7.57999992   9.96999931  53.85000229
H    15.93999958  10.44000053  53.89999771
H     4.90999985  10.17000008  56.40999603
H     5.46000004   9.07999992  55.24000168
S    17.27000046  12.82999992  52.50999832
C    19.95000076  12.93000031  51.73999786
C    18.63000107  12.79999924  51.37000275
C    18.25000000  12.25000000  50.10000229
C    19.26000023  11.94000053  49.20999908
C    20.62999916  12.20000076  49.47000122
C    21.64999962  11.90999985  48.52000427
C    22.98000145  11.92000008  48.88000107
C    23.34000015  12.53999901  50.11000061
C    22.36000061  12.84999943  51.03000259
C    20.96999931  12.64999962  50.79000092
C    16.80999947  12.06999969  50.00000000
C    16.13999939  12.46999931  51.18999863
C    14.75999928  12.46999931  51.29000092
C    24.77000046  12.84999943  50.47000122
H    25.16099739  12.29549503  51.32308197
H    20.19000053  13.17000008  52.77000046
H    19.03000069  11.80999947  48.15000153
H    21.42999840  11.51000023  47.54000092
H    23.72999954  11.61000061  48.16999817
H    22.56999969  13.43000031  51.91999817
H    14.30999947  13.03999996  52.09000015
H    25.43999863  12.72999954  49.59999847
H    24.68000031  13.93000031  50.63000107
S    13.56999969  10.88000107  47.83000183
C    10.88000107  11.13000011  48.46000290
C    12.18000031  11.49000072  48.74000168
C    12.56000042  11.97999954  50.02999878
C    11.54000092  12.17000008  50.94999695
C    10.18000031  11.90000057  50.70000076
C     9.13000011  12.17000008  51.63000107
C     7.82999992  11.92000008  51.27999878
C     7.55000019  11.28999901  50.04000092
C     8.52000046  10.92000008  49.13999939
C     9.85000038  11.35000038  49.40999985
C    14.00000000  12.02000046  50.20000076
C    14.68999958  11.46000004  49.09000015
C    16.06999969  11.50000000  48.96999741
C     6.15000010  10.88000107  49.64000320
H     5.79364681  11.37176704  48.73486328
H    10.67000008  10.59000015  47.54000092
H    11.77000046  12.61000061  51.91999817
H     9.36999989  12.48999977  52.63999939
H     6.97000027  12.25000000  51.86000061
H     8.38000011  10.34999943  48.22999954
H    16.59000015  11.10999966  48.09000015
H     5.58000040  11.23000050  50.51000214
H     6.00000000   9.78999996  49.68000031
