96

S    16.35000038  11.94000053  58.54000092
C    19.07999992  11.95000076  57.85999680
C    17.79000092  11.63000011  57.54000092
C    17.40999985  11.25000000  56.20999908
C    18.42000008  11.02000046  55.30000305
C    19.77000046  11.35000038  55.61000061
C    20.84000015  11.25000000  54.68000031
C    22.13999939  11.63000011  54.89999771
C    22.49000168  12.02999973  56.22000122
C    21.50000000  12.10000038  57.18000031
C    20.13999939  11.76000023  56.93999863
C    15.97000027  11.30000019  55.98999786
C    15.26999950  11.67000008  57.15999985
C    13.89000034  11.82000065  57.19999695
C    23.92000008  12.46000099  56.45000076
H    24.36913109  11.83264256  57.21993637
H    19.22999954  12.61999989  58.70999908
H    18.22000122  10.51000023  54.36000061
H    20.62000084  11.03000069  53.63999939
H    22.93999863  11.44000053  54.19000244
H    21.68000031  12.46999931  58.18999863
H    13.27000046  12.13000107  58.04000092
H    24.54000092  12.55000019  55.54999924
H    23.84000015  13.48999977  56.84000015
S    12.86000061  10.67000008  53.46000290
C    10.14999962  10.59000015  54.15000153
C    11.44000053  10.92000008  54.50000000
C    11.78999996  11.30000019  55.83000183
C    10.75000000  11.44000053  56.72999954
C     9.40999985  11.19999981  56.35000229
C     8.31999969  11.33999920  57.25999832
C     7.03000021  10.98999977  56.95000076
C     6.69000053  10.51000023  55.65999985
C     7.71000004  10.42000008  54.73999786
C     9.06999969  10.67999935  55.06000137
C    13.22000027  11.52999973  56.00999832
C    13.89000034  11.19999981  54.80999756
C    15.27999973  11.05999947  54.79000092
C     5.26000023  10.17000008  55.31999969
H     4.78842211  10.81306076  54.57690811
H     9.92999935  10.19999981  53.15999985
H    10.97000027  11.64999962  57.77999878
H     8.56000042  11.56999969  58.29999924
H     6.28000021  11.23999977  57.70000076
H     7.46999979  10.03000069  53.75000000
H    15.82999992  10.78999996  53.89999771
H     4.59999990  10.24000072  56.19999695
H     5.22000027   9.10000038  55.06999969
S    16.90000153  12.81000042  52.35000229
C    19.56999969  12.65999985  51.76000214
C    18.30000114  12.31999969  51.37000275
C    17.94000053  11.75000000  50.10000229
C    18.96000099  11.36999989  49.23999786
C    20.27000046  11.76000023  49.58000183
C    21.38000107  11.44000053  48.74000168
C    22.69000053  11.56000042  49.13999939
C    23.02999878  12.25000000  50.33000183
C    21.97000122  12.65999985  51.11999893
C    20.59999847  12.39999962  50.81999969
C    16.50000000  11.80999947  49.87999725
C    15.84000015  12.38999939  50.98999786
C    14.47000027  12.58999920  51.06999969
C    24.40000153  12.82999992  50.56999969
H    24.92445374  12.35515690  51.39920044
H    19.78999901  13.23999977  52.64999771
H    18.76000023  10.67999935  48.41999817
H    21.18000031  11.21999931  47.69000244
H    23.47999954  11.54999924  48.40000153
H    22.14999962  13.19000053  52.04999924
H    13.96999931  12.71000004  52.02000046
H    24.99000168  12.71999931  49.65000153
H    24.20000076  13.88000011  50.83000183
S    13.22999954  11.06999969  47.56999969
C    10.62000084  10.78999996  48.40000153
C    11.87999916  11.26000023  48.70999908
C    12.25000000  11.90999985  49.92000198
C    11.23000050  12.06999969  50.84999847
C     9.88000011  11.77999973  50.56999969
C     8.76999950  11.97000027  51.45000076
C     7.46999979  11.64000034  51.12999725
C     7.25000000  10.97000027  49.89999771
C     8.27000046  10.67999935  49.02999878
C     9.59000015  11.13000011  49.31999969
C    13.68000031  12.15000057  49.99000168
C    14.32999992  11.54000092  48.88999939
C    15.71000004  11.40999985  48.80000305
C     5.82000017  10.62999916  49.54999924
H     5.49320745  11.13439655  48.64066315
H    10.44000053  10.19000053  47.51999664
H    11.44999981  12.46000099  51.84999847
H     8.98999977  12.30999947  52.44999695
H     6.67000008  11.97999954  51.79000092
H     7.99000025  10.26999950  48.06000137
H    16.29999924  10.80999947  48.11999893
H     5.09999990  10.90999985  50.33000183
H     5.78999996   9.53999996  49.45000076
