96

S    16.90999985  12.36999989  58.72000122
C    19.63999939  12.50000000  58.00000000
C    18.36000061  12.05000019  57.75000000
C    17.95999908  11.46999931  56.51000214
C    18.96999931  11.21000099  55.59999847
C    20.29000092  11.68000031  55.79000092
C    21.32999802  11.51999950  54.84000397
C    22.62000084  11.95000076  55.08999634
C    22.95999908  12.69999981  56.24000168
C    21.94999886  12.89000034  57.15999985
C    20.65000153  12.35000038  57.02000046
C    16.52000046  11.43000031  56.32999802
C    15.77999973  12.00000000  57.41000366
C    14.42000008  12.27000046  57.32999802
C    24.40000153  13.05999947  56.51000214
H    24.85446739  12.49901772  57.32661819
H    19.88999939  13.07000065  58.88999939
H    18.78999901  10.73999977  54.62999725
H    21.07999992  10.90000057  53.99000168
H    23.38000107  11.51000023  54.45999908
H    22.29000092  13.35000038  58.09000015
H    13.86999989  12.64000034  58.18999863
H    24.90999985  12.94000053  55.54999924
H    24.37000084  14.14000034  56.70000076
S    13.42000008  10.71000004  53.85000229
C    10.62999916  10.86999989  54.25000000
C    11.90999985  11.10000038  54.69999695
C    12.23999977  11.71000004  55.96000290
C    11.19999981  12.02000046  56.81999969
C     9.86999989  11.77999973  56.42000198
C     8.80000019  11.97000027  57.35000229
C     7.57999992  11.47999954  56.97999954
C     7.32999992  10.78999996  55.77000046
C     8.30000019  10.67000008  54.79999924
C     9.57999992  11.18999958  55.13999939
C    13.66000080  11.84999943  56.23000336
C    14.44000053  11.35000038  55.14999771
C    15.81999969  11.14999962  55.14999771
C     6.00000000  10.13000011  55.45999908
H     5.32292747  10.77856445  54.90408707
H    10.38000011  10.34000015  53.34000015
H    11.42000008  12.28999996  57.84999847
H     9.00000000  12.35000038  58.34999847
H     6.75000000  11.59000015  57.68000031
H     8.10999966  10.18000031  53.85000229
H    16.38000107  10.88999939  54.26000214
H     5.44000053   9.75000000  56.31999969
H     6.23000050   9.28999996  54.78000259
S    17.27000046  13.12000084  52.67000198
C    19.95000076  13.05999947  51.95000076
C    18.65999985  12.65999985  51.66999817
C    18.29000092  12.05999947  50.43000031
C    19.20999908  11.82000065  49.43000031
C    20.55999947  12.15999985  49.68000031
C    21.63000107  11.84000015  48.79000092
C    22.95000076  12.09000015  49.06999969
C    23.28000069  12.77999973  50.26000214
C    22.26000023  13.15999985  51.11000061
C    20.89999962  12.77999973  50.93999863
C    16.84000015  12.05000019  50.27999878
C    16.14999962  12.51000023  51.43000031
C    14.77000046  12.56999969  51.32999802
C    24.64999962  13.34000015  50.58000183
H    25.17049980  12.73394012  51.32153320
H    20.13999939  13.55000019  52.90000153
H    18.96000099  11.26000023  48.53000259
H    21.32999802  11.39000034  47.84999847
H    23.59999847  11.90999985  48.20999908
H    22.43000031  13.96999931  51.81999969
H    14.22000027  12.79000092  52.23999786
H    25.20999908  13.27000046  49.64000320
H    24.61999893  14.40999985  50.84000015
S    13.73000050  11.18999958  47.72999573
C    11.05999947  10.98999977  48.44999695
C    12.30999947  11.46999931  48.75000000
C    12.61999989  11.97000027  50.06000137
C    11.61999893  12.09000015  51.00999832
C    10.27999973  11.82999992  50.65999985
C     9.19999981  12.10000038  51.56000137
C     7.92999983  11.73999977  51.20999908
C     7.63000011  11.14999962  49.94999695
C     8.67000008  10.93999958  49.06000137
C    10.01999950  11.23999977  49.38000107
C    14.06000042  12.13999939  50.20999908
C    14.78000069  11.69999981  49.06999969
C    16.17000008  11.63000011  49.12000275
C     6.21999979  10.67000008  49.68000031
H     5.70108652  11.22445583  48.89807510
H    10.90000057  10.62999916  47.43000031
H    11.96000004  12.38999939  52.00000000
H     9.48000050  12.43999958  52.55000305
H     7.13000011  11.92999935  51.91999817
H     8.48999977  10.44999981  48.11000061
H    16.76000023  11.18000031  48.34000015
H     5.66999960  10.80000019  50.61999893
H     6.17999983   9.57999992  49.54000092
