96

S    16.82999992  12.43999958  58.29999924
C    19.51000023  12.34000015  57.69000244
C    18.22999954  12.02999973  57.29000092
C    17.88999939  11.39999962  56.04999924
C    18.88000107  11.23999977  55.10000229
C    20.20999908  11.61999893  55.38000107
C    21.25999832  11.61999893  54.41999817
C    22.53999901  12.05000019  54.68999863
C    22.82999992  12.43000031  56.03000259
C    21.83000183  12.57999992  56.95000076
C    20.50000000  12.13999939  56.69000244
C    16.44000053  11.30000019  55.94999695
C    15.72000027  11.82999992  57.05999756
C    14.34000015  11.96000004  57.15999985
C    24.25000000  12.93000031  56.24000168
H    24.70666122  12.45906925  57.11050797
H    19.84000015  12.82999992  58.60000229
H    18.56999969  10.95999908  54.09999847
H    21.04000092  11.36000061  53.39000320
H    23.22000122  12.05000019  53.83999634
H    22.01000023  13.07000065  57.90000153
H    13.86000061  12.23999977  58.09999847
H    24.87999916  12.79000092  55.35999680
H    24.13999939  14.00000000  56.45000076
S    13.12000084  10.55999947  53.68000031
C    10.47000027  10.29000092  54.52000046
C    11.75000000  10.72000027  54.79999924
C    12.13000107  11.32999992  56.03000259
C    11.07999992  11.59999943  56.88999939
C     9.76000023  11.17000008  56.65000153
C     8.64999962  11.61999893  57.43000031
C     7.42000008  11.02000046  57.29000092
C     7.13000011  10.27999973  56.11999893
C     8.10999966   9.96000004  55.20000076
C     9.42000008  10.44999981  55.45000076
C    13.56999969  11.56000042  56.05999756
C    14.27000046  11.11999989  54.91000366
C    15.65000057  10.93000031  54.86000061
C     5.72000027   9.81000042  55.86000061
H     5.27872419  10.50038338  55.14114761
H    10.26000023   9.77999973  53.57999802
H    11.23000050  12.30000019  57.71999741
H     8.89999962  12.32999992  58.20999908
H     6.65999985  11.10000038  58.06000137
H     7.88000011   9.59999943  54.20000076
H    16.18999863  10.57999992  53.97999573
H     5.14999962   9.85999966  56.79000092
H     5.80999947   8.76000023  55.56000137
S    13.55000019   8.69999981  50.48999786
C    10.98000050   8.01000023  51.31000137
C    12.32999992   7.94000053  51.52999878
C    12.86000061   7.16000032  52.61000061
C    11.94000053   6.65999985  53.52000427
C    10.53999996   6.70000029  53.34999847
C     9.63999939   6.05000019  54.25000000
C     8.28999996   6.28000021  54.16999817
C     7.82999992   6.89000034  52.97000122
C     8.64999962   7.42000008  52.00000000
C    10.06999969   7.36000013  52.16999817
C    14.28999996   7.40000010  52.72999573
C    14.78000069   8.19000053  51.65999985
C    16.10000038   8.60999966  51.75000000
C     6.37000036   7.28999996  52.97999954
H     5.73651505   6.77040052  52.26110077
H    10.57000065   8.48999977  50.41999817
H    12.38000011   6.06999969  54.31999969
H    10.03000069   5.47999954  55.07999802
H     7.72000027   6.01999998  55.06000137
H     8.28999996   8.01000023  51.16000366
H    16.63999939   9.15999985  50.98999786
H     5.88999987   7.16000032  53.95000076
H     6.39999962   8.38999939  52.93000031
S    17.63000107   7.17000008  55.13999939
C    20.26000023   7.73000002  54.38999939
C    18.90999985   7.86000013  54.13000107
C    18.38000107   8.36999989  52.90999985
C    19.25000000   8.85999966  51.95999908
C    20.62000084   8.97000027  52.29999924
C    21.54999924   9.67000008  51.46999741
C    22.89999962   9.59000015  51.72999954
C    23.40999985   9.02999973  52.94000244
C    22.53000069   8.43999958  53.81999969
C    21.14000130   8.43000031  53.52000427
C    16.93000031   8.19999981  52.80000305
C    16.39000130   7.51999950  53.92000198
C    15.06000042   7.11999989  53.87000275
C    24.86999893   9.13000011  53.29000092
H    25.04147530   8.89422131  54.34029007
H    20.62000084   7.35000038  55.34999847
H    18.88000107   9.30000019  51.04000092
H    21.17000198  10.08999920  50.54000092
H    23.50000000  10.18000031  51.05999756
H    22.88999939   8.05999947  54.77000427
H    14.46000004   6.81999969  54.72999954
H    25.29999924  10.11000061  53.02000046
H    25.35000038   8.36000061  52.68000031
