96

S    17.02000046  12.00000000  58.36999893
C    19.63999939  12.43000031  57.50000000
C    18.37000084  11.96000004  57.22999954
C    18.02000046  11.54000092  55.90999985
C    18.96000099  11.42000008  54.89999771
C    20.29999924  11.76000023  55.20999908
C    21.38999939  11.36000061  54.38999939
C    22.70999908  11.50000000  54.75000000
C    23.02000046  12.22000027  55.93999863
C    22.00000000  12.61000061  56.77000046
C    20.62999916  12.35000038  56.49000168
C    16.59000015  11.31999969  55.84999847
C    15.90000057  11.54999924  57.06999969
C    14.52000046  11.68000031  57.05999756
C    24.47999954  12.50000000  56.19999695
H    24.84273720  11.91677666  57.04638290
H    19.88000107  12.77999973  58.50000000
H    18.78000069  10.81999969  54.01000214
H    21.09999847  10.88999939  53.46000290
H    23.47999954  11.18000031  54.05000305
H    22.21999931  12.94999981  57.77999878
H    13.96000004  12.17000008  57.85999680
H    25.00999832  12.13999939  55.31000137
H    24.63000107  13.55999947  56.44000244
S    13.35000038  10.52999973  53.47000122
C    10.62999916  10.59000015  54.20000076
C    11.94000053  10.90000057  54.47999954
C    12.31999969  11.46999931  55.73999786
C    11.31999969  11.78999996  56.63999939
C     9.98000050  11.39999962  56.40999603
C     8.89999962  11.56000042  57.32999802
C     7.63000011  11.09000015  57.09000015
C     7.28999996  10.47000027  55.86000061
C     8.27000046  10.40999985  54.88999939
C     9.59999943  10.82999992  55.14999771
C    13.76000023  11.38000011  55.91999817
C    14.47000027  10.93999958  54.78000259
C    15.85999966  10.93000031  54.72000122
C     5.95000029   9.82999992  55.59000015
H     5.43013477  10.34986496  54.78527451
H    10.54999924  10.14999962  53.20000076
H    11.64000034  12.18999958  57.60000229
H     9.11999989  11.97000027  58.30999756
H     6.94999981  11.13000011  57.94000244
H     8.09000015   9.84000015  53.97999573
H    16.31000137  10.47999954  53.83999634
H     5.35000038  10.11000061  56.47999573
H     5.89999962   8.75000000  55.44000244
S    16.95000076  12.77999973  52.37999725
C    19.59000015  12.96000004  51.65000153
C    18.37000084  12.38000011  51.39999771
C    18.04000092  11.84999943  50.11000061
C    19.05999947  11.56999969  49.22999954
C    20.36000061  12.06999969  49.45000076
C    21.45999908  11.97999954  48.54999924
C    22.65000153  12.64000034  48.74000168
C    22.84000015  13.38000107  49.93000031
C    21.84999847  13.43999958  50.89000320
C    20.56999969  12.88000011  50.63000107
C    16.59000015  11.82000065  49.97000122
C    15.84000015  12.28000069  51.09000397
C    14.46000004  12.35999966  51.13999939
C    24.21999931  13.88000011  50.27999878
H    24.68215370  13.26853466  51.05500031
H    19.84000015  13.36999989  52.62000275
H    18.92000008  10.98000050  48.33000183
H    21.11999893  11.54000092  47.61000061
H    23.45000076  12.69000053  48.00000000
H    21.97000122  13.93000031  51.84999847
H    13.92000008  12.79999924  51.97999954
H    24.82999992  14.14000034  49.40999985
H    23.98999977  14.85999966  50.70999908
S    13.43000031  11.05000019  47.56000137
C    10.65999985  11.32999992  48.11999893
C    11.97999954  11.51999950  48.47000122
C    12.31999969  11.89000034  49.80999756
C    11.28000069  12.18999958  50.68000031
C     9.92999935  11.89000034  50.41999817
C     8.82999992  11.98999977  51.31999969
C     7.57000017  11.56999969  50.96000290
C     7.30999994  11.17000008  49.62999725
C     8.31999969  11.03000069  48.70999908
C     9.63000011  11.43000031  49.09000015
C    13.76000023  11.96000004  50.00000000
C    14.51000023  11.44000053  48.90999603
C    15.88999939  11.35000038  48.85000229
C     5.88999987  10.77999973  49.27000046
H     5.44897795  11.30638027  48.42352295
H    10.43000031  10.97000027  47.11999893
H    11.54999924  12.50000000  51.68000031
H     9.13000011  12.42000008  52.28000259
H     6.81999969  11.63000011  51.75000000
H     8.18000031  10.60999966  47.70999908
H    16.40999985  10.82999992  48.04999924
H     5.31000042  10.90999985  50.20000076
H     5.73000002   9.71000004  49.12000275
