96

S    17.20999908  12.22000027  58.57999802
C    19.89999962  12.25000000  57.77999878
C    18.57999992  11.98999977  57.49000168
C    18.22999954  11.47999954  56.18999863
C    19.15999985  11.39999962  55.17000198
C    20.45000076  11.90000057  55.43000031
C    21.55999947  11.64999962  54.56999969
C    22.86999893  11.84999943  54.93000031
C    23.15999985  12.63000011  56.07999802
C    22.13999939  12.88000011  56.97000122
C    20.81999969  12.42000008  56.72000122
C    16.77999878  11.46000004  56.11000061
C    16.06999969  11.72999954  57.30999756
C    14.68000031  11.80999947  57.29999924
C    24.54000092  12.97999954  56.59000015
H    25.05058098  12.20703697  57.16440201
H    20.29000092  12.48999977  58.76999664
H    18.97999954  10.81999969  54.27000046
H    21.42000008  11.06999969  53.66000366
H    23.69999886  11.38000011  54.40000153
H    22.39000130  13.36999989  57.90000153
H    14.15999985  12.23000050  58.15999985
H    25.20999908  13.30999947  55.79000092
H    24.40999985  13.89999962  57.15999985
S    13.50000000  10.76000023  53.74000168
C    10.75000000  10.72999954  54.36999893
C    12.05000019  10.93999958  54.75000000
C    12.44999981  11.39000034  56.04999924
C    11.44999981  11.61000061  56.97999954
C    10.11000061  11.33999920  56.60999680
C     9.11999989  11.38000011  57.63999939
C     7.81000042  11.11999989  57.34000397
C     7.36000013  10.88999939  56.00999832
C     8.31999969  10.78999996  55.01999664
C     9.71000004  10.84000015  55.31999969
C    13.89999962  11.47999954  56.18999863
C    14.65000057  11.11999989  55.04000092
C    16.03999901  11.06999969  54.99000168
C     5.92999983  10.57000065  55.63000107
H     5.53872156  11.17470360  54.81187057
H    10.59999943  10.36999893  53.34999847
H    11.71000004  11.96000004  57.97000122
H     9.44999981  11.72999954  58.61000061
H     6.98999977  11.26999950  58.04000092
H     8.02999973  10.65000057  53.97999573
H    16.51000023  10.88000107  54.02999878
H     5.23999977  10.64000034  56.46999741
H     5.92999983   9.55999947  55.20000076
S    17.81999969  12.32999992  52.37999725
C    20.52000046  12.65999985  51.62000275
C    19.27000046  12.15000057  51.37000275
C    18.85000038  11.71000004  50.06999969
C    19.85000038  11.65999985  49.12000275
C    21.18000031  12.09000015  49.33000183
C    22.36999893  11.76000023  48.61000061
C    23.64000130  12.13999939  48.95999908
C    23.82999802  13.02000046  50.06000137
C    22.75000000  13.27999973  50.87999725
C    21.45999908  12.77999973  50.56999969
C    17.40999985  11.59000015  49.88999939
C    16.69999886  11.97000027  51.05999756
C    15.31999969  12.13000107  51.13999939
C    25.20000076  13.53000069  50.45000076
H    25.53240204  13.17638016  51.42599487
H    20.86999893  13.03999996  52.57999802
H    19.70999908  11.02000046  48.25000000
H    22.20000076  11.19999981  47.70000076
H    24.43000031  11.87999916  48.26000214
H    22.95000076  13.81999969  51.79999924
H    14.78999996  12.35999966  52.05999756
H    25.93000031  13.21000004  49.69999695
H    25.06999969  14.60999966  50.56000137
S    14.11999893  10.90999985  47.65999603
C    11.35000038  11.05999947  48.44999695
C    12.69000053  11.26999950  48.63999939
C    13.10999966  11.79999924  49.91000366
C    12.22000027  12.20999908  50.87999725
C    10.82999992  12.01000023  50.70999908
C     9.85000038  12.10000038  51.73999786
C     8.52999973  11.84000015  51.45999908
C     8.11999989  11.30000019  50.20999908
C     9.06999969  11.05999947  49.23999786
C    10.43000031  11.42000008  49.45999908
C    14.55999947  11.76000023  50.02999878
C    15.31000042  11.28000069  48.93000031
C    16.68000031  11.30000019  48.73000336
C     6.67999983  11.00999928  49.86000061
H     6.31888103  11.64726830  49.05279541
H    10.90999985  10.36000061  47.74000168
H    12.64000034  12.69000053  51.76000214
H    10.06000042  12.51999950  52.71999741
H     7.76999998  12.23999977  52.11999893
H     8.82000065  10.75000000  48.22999954
H    17.07999992  11.25000000  47.71999741
H     6.12999964  11.03000069  50.80999756
H     6.50000000   9.96000004  49.61000061
