96

S    16.29999924  12.18000031  58.29000092
C    18.98999977  12.39999962  57.49000168
C    17.70000076  12.01000023  57.21000290
C    17.36999893  11.39999962  55.96000290
C    18.27000046  11.31000042  54.91000366
C    19.61000061  11.59999943  55.24000168
C    20.59999847  11.49000072  54.20999908
C    21.90999985  11.69999981  54.54999924
C    22.27000046  12.13999939  55.84999847
C    21.35000038  12.38999939  56.84999847
C    19.97999954  12.18000031  56.50000000
C    15.93000031  11.36999989  55.76000214
C    15.24000072  11.72999954  56.93999863
C    13.86000061  11.89000034  56.98999786
C    23.72999954  12.36999989  56.13999939
H    24.15818405  11.84904575  56.99636841
H    19.29999924  12.55000019  58.52000427
H    18.09000015  10.95000076  53.89999771
H    20.29999924  11.14999962  53.22999954
H    22.62000084  11.59999943  53.73000336
H    21.70999908  12.90999985  57.72999573
H    13.35000038  12.18999958  57.88999939
H    24.37000084  12.06999969  55.28999710
H    23.84000015  13.45999908  56.25999832
S    12.69000053  10.93000031  53.29000092
C    10.03000069  10.69000053  54.02999878
C    11.31000042  11.02000046  54.40999985
C    11.69999981  11.44000053  55.72000122
C    10.71000004  11.61999893  56.65999985
C     9.34000015  11.42000008  56.32999802
C     8.36000061  11.40999985  57.36000061
C     7.04999971  11.10999966  57.05999756
C     6.72999954  10.70000076  55.75000000
C     7.69000006  10.53999996  54.78000259
C     9.04999924  10.90999985  55.01999664
C    13.15000057  11.56000042  55.83000183
C    13.81999969  11.18999958  54.64000320
C    15.21000004  11.19999981  54.56999969
C     5.32999992  10.34000015  55.28999710
H     4.95433855  11.03461933  54.53867722
H     9.72000027  10.13000011  53.13999939
H    10.98000050  11.87000084  57.69000244
H     8.73999977  11.44999981  58.37999725
H     6.34000015  11.02000046  57.88000107
H     7.51999950  10.06000042  53.81999969
H    15.71000004  10.86999989  53.67000198
H     4.67999983  10.40999985  56.17000198
H     5.38999987   9.28999996  54.97000122
S    17.23999977  13.09000015  52.29000092
C    19.85000038  13.34000015  51.32999802
C    18.60000038  12.77999973  51.18999863
C    18.18000031  12.15000057  49.98000336
C    19.13999939  12.01000023  48.99000168
C    20.48000145  12.46000099  49.13999939
C    21.47000122  12.30000019  48.11999893
C    22.77000046  12.64999962  48.36999893
C    23.15999985  13.09000015  49.65999985
C    22.25000000  13.27000046  50.68000031
C    20.88000107  13.02000046  50.40000153
C    16.75000000  11.90000057  49.89999771
C    16.13999939  12.48999977  51.04000092
C    14.75000000  12.53000069  51.13999939
C    24.59000015  13.48000050  49.93999863
H    25.12339211  12.79725838  50.60140610
H    20.06999969  13.71999931  52.31999969
H    18.84000015  11.51000023  48.08000183
H    21.12999916  11.78999996  47.22999954
H    23.52999878  12.51999950  47.60000229
H    22.46000099  13.67000008  51.66999817
H    14.34000015  12.76000023  52.11999893
H    25.17999840  13.60999966  49.02999878
H    24.51999855  14.51000023  50.31000137
S    13.59000015  11.28999901  47.45999908
C    10.93999958  11.18999958  48.11000061
C    12.20000076  11.51999950  48.54999924
C    12.56000042  11.92000008  49.86999893
C    11.46999931  12.28999996  50.63999939
C    10.13000011  11.98999977  50.27999878
C     9.02000046  12.18999958  51.14999771
C     7.71000004  12.00000000  50.77999878
C     7.46999979  11.38000011  49.52000046
C     8.52000046  11.03999996  48.69999695
C     9.85999966  11.42000008  48.99000168
C    13.99000072  12.06999969  50.06000137
C    14.61999989  11.64000034  48.87000275
C    16.00000000  11.46999931  48.80000305
C     6.05999994  10.95999908  49.18000031
H     5.50634384  11.60593224  48.49857712
H    10.75000000  10.62000084  47.19999695
H    11.76000023  12.71999931  51.59999847
H     9.26999950  12.51999950  52.15999985
H     6.84000015  12.23000050  51.38000107
H     8.27000046  10.60999966  47.74000168
H    16.45000076  11.26000023  47.83000183
H     5.46999979  10.78999996  50.08999634
H     6.19999981   9.96000004  48.75999832
