96

S    16.81999969  12.20000076  58.27000046
C    19.52999878  12.53999901  57.61000061
C    18.26000023  12.18000031  57.23999786
C    17.86999893  11.64999962  55.96000290
C    18.88000107  11.39999962  55.06000137
C    20.20999908  11.71000004  55.40000153
C    21.28000069  11.39000034  54.51000214
C    22.59000015  11.47999954  54.92000198
C    22.90999985  12.15000057  56.11999893
C    21.91999817  12.58999920  56.97000122
C    20.56999969  12.23000050  56.70000076
C    16.43000031  11.46000004  55.80999756
C    15.69000053  11.79999924  56.97000122
C    14.29999924  11.78999996  57.01000214
C    24.28999901  12.71999931  56.39999771
H    24.71635056  12.15863895  57.23138046
H    19.71999931  13.04999924  58.54999924
H    18.60999870  10.93000031  54.10999680
H    20.95999908  10.98000050  53.54999924
H    23.29999924  11.21000099  54.13999939
H    22.06000137  13.27999973  57.80000305
H    13.78999901  12.05000019  57.93000031
H    24.93000031  12.61999989  55.52999878
H    24.14999962  13.78999901  56.56999969
S    13.25000000  10.50000000  53.41999817
C    10.48999977  10.43000031  54.12000275
C    11.78999996  10.81999969  54.36999893
C    12.10999966  11.39000034  55.65000153
C    11.11999989  11.68000031  56.56000137
C     9.77000046  11.31000042  56.31999969
C     8.75000000  11.59000015  57.27000427
C     7.42999983  11.39999962  56.93000031
C     7.09999990  10.67999935  55.75000000
C     8.10000038  10.32999992  54.86000061
C     9.46000004  10.67000008  55.06999969
C    13.55000019  11.44000053  55.87999725
C    14.29999924  11.03999996  54.73999786
C    15.67999935  10.95000076  54.73999786
C     5.75000000  10.06000042  55.50000000
H     5.10920668  10.65807438  54.85208511
H    10.21000004   9.98999977  53.16999817
H    11.40999985  12.18999958  57.47000122
H     9.04999924  12.10999966  58.18000031
H     6.67999983  11.57999992  57.69000244
H     7.76000023   9.90999985  53.92000198
H    16.22999954  10.44999981  53.95000076
H     5.23999977   9.80000019  56.43000031
H     5.86000013   9.03999996  55.10000229
S    17.40999985  12.53999901  52.28000259
C    20.09000015  12.58999920  51.63000107
C    18.79999924  12.42000008  51.18000031
C    18.46999931  12.20000076  49.80999756
C    19.47000122  12.03999996  48.87000275
C    20.81000137  12.22000027  49.31000137
C    21.86000061  12.30999947  48.34999847
C    23.15999985  12.46000099  48.77999878
C    23.52000046  12.51999950  50.14999771
C    22.50000000  12.56999969  51.07999802
C    21.14000130  12.48999977  50.68999863
C    17.02000046  12.05000019  49.68999863
C    16.31999969  12.41000080  50.87999725
C    14.93999958  12.32999992  50.97999954
C    24.89999962  12.94999981  50.59999847
H    25.30684280  12.19341278  51.27093506
H    20.29999924  12.84999943  52.65999603
H    19.29000092  11.82999992  47.81999969
H    21.70999908  12.02999973  47.31999969
H    23.95000076  12.60000038  48.04999924
H    22.69000053  12.84000015  52.11000061
H    14.47000027  12.55000019  51.93999863
H    25.51000214  13.12999916  49.69999695
H    24.79000092  13.94000053  51.04999924
S    13.71000099  10.95999908  47.55000305
C    10.98999977  10.85999966  48.22999954
C    12.28000069  11.21000099  48.56999969
C    12.65999985  11.78999996  49.81999969
C    11.64000034  12.02999973  50.70999908
C    10.27999973  11.77999973  50.40000153
C     9.23999977  12.00000000  51.33999634
C     7.92999983  11.85999966  50.94999695
C     7.63000011  11.39000034  49.65000153
C     8.59000015  11.09000015  48.70999908
C     9.94999981  11.19999981  49.13000107
C    14.11000061  11.96000004  49.92000198
C    14.84000015  11.59000015  48.75999832
C    16.21999931  11.59999943  48.63999939
C     6.19999981  10.90999985  49.55999756
H     5.69446278  11.44401741  48.75541306
H    10.78999996  10.31999969  47.29999924
H    11.96000004  12.55000019  51.60999680
H     9.57999992  12.10999966  52.36999893
H     7.17999983  11.95000076  51.73999786
H     8.42000008  10.62999916  47.74000168
H    16.73999977  11.28999901  47.74000168
H     5.84999990  11.13000011  50.58000183
H     6.12999964   9.81999969  49.43999863
