96

S    16.31000137  12.35000038  58.41999817
C    19.04999924  12.35000038  57.81999969
C    17.76000023  12.00000000  57.47000122
C    17.46000099  11.56999969  56.13999939
C    18.47999954  11.44999981  55.21999741
C    19.81999969  11.69000053  55.61999893
C    20.90999985  11.61999893  54.71000290
C    22.18000031  12.05000019  55.00000000
C    22.46999931  12.64000034  56.25999832
C    21.47999954  12.60000038  57.21000290
C    20.13999939  12.23999977  56.90999985
C    16.02000046  11.46999931  55.90999985
C    15.29000092  11.90999985  57.02999878
C    13.92000008  11.77999973  57.22999954
C    23.88000107  12.98999977  56.69000244
H    24.30136490  12.26153946  57.38274765
H    19.20999908  12.88000011  58.75000000
H    18.18000031  11.09000015  54.23999786
H    20.82999992  11.25000000  53.68999863
H    22.93000031  11.92999935  54.22999954
H    21.61999893  13.05999947  58.18999863
H    13.42000008  11.98999977  58.16999817
H    24.53000069  13.02000046  55.79999924
H    24.04000092  13.94999981  57.18000031
S    12.74000072  10.65000057  53.61999893
C    10.03999901  10.65999985  54.31999969
C    11.35000038  10.90000057  54.68999863
C    11.69999981  11.36999989  56.00000000
C    10.70000076  11.61000061  56.90999985
C     9.38000011  11.21999931  56.58000183
C     8.32999992  11.39999962  57.52999878
C     7.02000046  11.21999931  57.15000153
C     6.67000008  10.65999985  55.89000320
C     7.67000008  10.36000061  55.00000000
C     8.98999977  10.81999969  55.26000214
C    13.15000057  11.46000004  56.10000229
C    13.85000038  11.13999939  54.91000366
C    15.24000072  11.03999996  54.82999802
C     5.22000027  10.39999962  55.54000092
H     4.92235756  10.66929531  54.52659607
H     9.89999962  10.15999985  53.36000061
H    11.00000000  11.90000057  57.91999817
H     8.55000019  11.82000065  58.50999832
H     6.25999975  11.57999992  57.84000015
H     7.46000004   9.85000038  54.06000137
H    15.62999916  10.62000084  53.90999603
H     4.53000021  10.88000107  56.25000000
H     5.15999985   9.32999992  55.77000046
S    16.60000038  12.44999981  52.37999725
C    19.31999969  12.48000050  51.79000092
C    18.04000092  12.23000050  51.36000061
C    17.73999977  11.72000027  50.06000137
C    18.81000137  11.63000011  49.19000244
C    20.09000015  12.15000057  49.48999786
C    21.21000099  12.18000031  48.61000061
C    22.49000168  12.55000019  48.94000244
C    22.67999840  13.14000034  50.21999741
C    21.68999863  12.94999981  51.16000366
C    20.35000038  12.61999989  50.81999969
C    16.31000137  11.79999924  49.79000092
C    15.57999992  12.17000008  50.94999695
C    14.19999981  12.23000050  51.02000427
C    24.02000046  13.67000008  50.66999817
H    24.57591057  12.99292850  51.31856537
H    19.52000046  12.90999985  52.77000046
H    18.63000107  11.18999958  48.20999908
H    21.01000023  11.82999992  47.60000229
H    23.31999969  12.42000008  48.23999786
H    21.86000061  13.07999992  52.22000122
H    13.75000000  12.55000019  51.95999908
H    24.61000061  14.01000023  49.80999756
H    23.85999870  14.55000019  51.31000137
S    13.07000065  10.93000031  47.50000000
C    10.40999985  10.80000019  48.15000153
C    11.65999985  11.25000000  48.52000427
C    12.00000000  11.84000015  49.77000427
C    10.97000027  11.97000027  50.68000031
C     9.70000076  11.42000008  50.41999817
C     8.63000011  11.52999973  51.36000061
C     7.31999969  11.26999950  51.04000092
C     7.03000021  10.73999977  49.75000000
C     8.01999950  10.59000015  48.80000305
C     9.35999966  10.97000027  49.09999847
C    13.45000076  12.02000046  49.86000061
C    14.17000008  11.64000034  48.69999695
C    15.54999924  11.54999924  48.63999939
C     5.56999969  10.52999973  49.43000031
H     5.28494120  10.92195606  48.45367432
H    10.26000023  10.21999931  47.25000000
H    11.09000015  12.56000042  51.59000015
H     8.84000015  11.87999916  52.36999893
H     6.51000023  11.54000092  51.70000076
H     7.82000017  10.25000000  47.78999710
H    15.95000076  11.17000008  47.70000076
H     4.92000008  11.03999996  50.14999771
H     5.45000029   9.44000053  49.43000031
