96

S    16.84000015  12.18999958  58.43999863
C    19.55999947  12.22000027  57.84000015
C    18.27000046  11.97000027  57.42000198
C    17.97999954  11.61000061  56.06999969
C    18.98999977  11.44999981  55.13999939
C    20.32999992  11.69999981  55.52000046
C    21.34000015  11.59999943  54.52999878
C    22.67000008  11.63000011  54.89999771
C    22.95000076  11.97000027  56.25000000
C    21.97999954  12.22000027  57.18999863
C    20.59999847  12.03999996  56.88999939
C    16.54000092  11.40999985  55.93000031
C    15.78999996  11.72000027  57.09000015
C    14.40000057  11.77999973  57.18000031
C    24.37000084  12.23000050  56.68000031
H    24.71113777  11.49797344  57.41202545
H    19.73999977  12.55000019  58.86000061
H    18.78000069  11.23999977  54.09000015
H    21.01000023  11.14999962  53.60000229
H    23.51000023  11.43000031  54.23999786
H    22.23999977  12.69000053  58.13999939
H    13.80000019  11.94000053  58.06999969
H    25.03999901  12.23000050  55.80999756
H    24.43000031  13.23999977  57.11000061
S    13.26000023  10.88000107  53.53000259
C    10.48999977  10.88000107  54.18000031
C    11.80999947  11.10000038  54.52000046
C    12.20000076  11.44999981  55.84999847
C    11.21000099  11.65999985  56.79000092
C     9.85000038  11.46999931  56.46999741
C     8.80999947  11.64000034  57.42000198
C     7.48000050  11.46000004  57.09000015
C     7.17999983  10.84000015  55.84999847
C     8.11999989  10.72000027  54.86000061
C     9.47000027  11.10000038  55.13000107
C    13.63999939  11.47999954  56.04999924
C    14.37999916  11.18000031  54.86999893
C    15.76000023  11.02000046  54.84000397
C     5.77000046  10.36999893  55.59000015
H     5.19473314  10.83163452  54.78746796
H    10.21999931  10.44999981  53.22000122
H    11.46999931  11.96000004  57.81000137
H     9.19000053  11.92000008  58.40000153
H     6.69000053  11.69000053  57.80000305
H     7.92000008  10.29999924  53.88000107
H    16.25000000  10.90999985  53.87000275
H     5.17000008  10.55999947  56.47999573
H     5.86999989   9.27999973  55.48999786
S    17.09000015  12.77999973  52.30999756
C    19.78000069  12.71000004  51.65999985
C    18.48999977  12.41000080  51.27999878
C    18.11000061  11.96000004  49.98000336
C    19.12999916  11.51999950  49.15000153
C    20.46999931  11.82000065  49.51000214
C    21.54000092  11.51000023  48.62999725
C    22.85000038  11.89000034  48.77999878
C    23.12000084  12.64999962  49.94999695
C    22.15999985  12.94999981  50.89000320
C    20.81999969  12.48999977  50.72999954
C    16.65999985  11.98999977  49.84000397
C    15.98999977  12.56999969  50.93999863
C    14.60999966  12.72999954  50.98999786
C    24.59000015  12.97000027  50.13000107
H    25.03283501  12.29860401  50.86568069
H    19.96000099  13.19000053  52.62000275
H    18.95000076  10.95999908  48.23999786
H    21.28000069  10.90000057  47.76000214
H    23.72999954  11.51999950  48.25000000
H    22.34999847  13.48999977  51.81000137
H    14.04999924  12.86999893  51.90999985
H    25.13999939  12.86999893  49.19000244
H    24.77999878  14.00000000  50.45000076
S    13.42000008  11.10000038  47.61000061
C    10.71000004  11.00000000  48.46000290
C    12.02000046  11.38000011  48.66000366
C    12.36999989  12.10999966  49.84000397
C    11.46999931  12.35999966  50.86000061
C    10.11999989  11.97999954  50.68999863
C     9.11000061  12.23000050  51.65999985
C     7.79999971  11.84999943  51.49000168
C     7.46999979  11.25000000  50.25000000
C     8.40999985  10.90999985  49.31000137
C     9.78999996  11.21999931  49.51000214
C    13.81000042  12.32999992  49.91000366
C    14.52000046  11.71000004  48.86000061
C    15.88999939  11.49000072  48.77999878
C     6.03999996  10.82999992  49.98000336
H     5.64838791  11.23585224  49.04725266
H    10.44000053  10.57999992  47.50000000
H    11.89000034  12.82999992  51.73999786
H     9.42000008  12.65999985  52.61000061
H     7.03999996  11.90999985  52.27000427
H     8.13000011  10.39999962  48.39000320
H    16.29999924  11.02000046  47.90000153
H     5.42000008  11.03999996  50.86000061
H     6.11999989   9.73999977  49.88999939
