96

S    16.52000046  12.44999981  58.59000397
C    19.25000000  12.48999977  57.84000015
C    17.94000053  12.20999908  57.55000305
C    17.54999924  11.71000004  56.25999832
C    18.57999992  11.31000042  55.41999817
C    19.93999863  11.54999924  55.68999863
C    21.01000023  11.07999992  54.87999725
C    22.32999992  11.23000050  55.27000046
C    22.67000008  12.00000000  56.40999603
C    21.64999962  12.44999981  57.21000290
C    20.28000069  12.28000069  56.88999939
C    16.11999893  11.69999981  56.03000259
C    15.44999981  12.05999947  57.22999954
C    14.06000042  12.01000023  57.23999786
C    24.11999893  12.13000107  56.83000183
H    24.42691040  11.90160179  57.85065842
H    19.59000015  12.92000008  58.77999878
H    18.29000092  11.03999996  54.40999985
H    20.76999855  10.48999977  54.00000000
H    23.09000015  10.75000000  54.65999985
H    21.83000183  12.81999969  58.22000122
H    13.53000069  12.28000069  58.15000153
H    24.70000076  11.44999981  56.19999695
H    24.48999786  13.15000057  56.63000107
S    12.86000061  10.82999992  53.64999771
C    10.18000031  10.57999992  54.47000122
C    11.47999954  10.90000057  54.75999832
C    11.87000084  11.42000008  56.04000092
C    10.93999958  11.57999992  57.04000092
C     9.61999989  11.14999962  56.79000092
C     8.60000038  11.25000000  57.77999878
C     7.28999996  10.88000107  57.55000305
C     6.94000006  10.26999950  56.31999969
C     7.86999989  10.24000072  55.30000305
C     9.19999981  10.72000027  55.47999954
C    13.31999969  11.59000015  56.12999725
C    14.00000000  11.23999977  54.93999863
C    15.39000034  11.21000099  54.93999863
C     5.49000025  10.00000000  55.96000290
H     5.17696381  10.68298817  55.17029572
H    10.01000023  10.10000038  53.50000000
H    11.06999969  12.07999992  58.00000000
H     8.89999962  11.75000000  58.68999863
H     6.60000038  11.42000008  58.20000076
H     7.59000015   9.90999985  54.29999924
H    15.98000050  10.77000046  54.13999939
H     4.94000006   9.98999977  56.90999985
H     5.45000029   8.97999954  55.54999924
S    13.57999992   8.84000015  51.10000229
C    10.88999939   8.10000038  51.81999969
C    12.25000000   8.09000015  52.00000000
C    12.79000092   7.55000019  53.20999908
C    11.96000004   6.97000027  54.15000153
C    10.54999924   7.00999975  53.97999573
C     9.67000008   6.38999987  54.91000366
C     8.32999992   6.34999990  54.64000320
C     7.75000000   7.07999992  53.55999756
C     8.57999992   7.73999977  52.68000031
C     9.98999977   7.64999962  52.81999969
C    14.22000027   7.73999977  53.39000320
C    14.80999947   8.42000008  52.29999924
C    16.18000031   8.56999969  52.11000061
C     6.25999975   7.11999989  53.31999969
H     5.90408659   6.92068863  52.30920792
H    10.53999996   8.59000015  50.90000153
H    12.34000015   6.61999989  55.11000061
H    10.08999920   5.84999990  55.76000214
H     7.68000031   5.92000008  55.38999939
H     8.19000053   8.23000050  51.79000092
H    16.50000000   8.89999962  51.11999893
H     5.68000031   6.47000027  53.97999573
H     5.88999987   8.10000038  53.68000031
S    17.64999962   7.23000002  55.59000015
C    20.31999969   7.57000017  54.65999985
C    18.96000099   7.73999977  54.51000214
C    18.43000031   8.26000023  53.27999878
C    19.29999924   8.65999985  52.27000427
C    20.69999886   8.65999985  52.42000198
C    21.63999939   9.13999939  51.45999908
C    23.00000000   9.06999969  51.66999817
C    23.46999931   8.55000019  52.90000153
C    22.59000015   8.03999996  53.82999802
C    21.17000198   8.09000015  53.64999771
C    16.97999954   8.30000019  53.22999954
C    16.43000031   7.67000008  54.36999893
C    15.08999920   7.30999994  54.40000153
C    24.90999985   8.75000000  53.29999924
H    25.11669922   8.47202682  54.33349228
H    20.72000122   7.21000004  55.59999847
H    18.86000061   8.94999981  51.31999969
H    21.22999954   9.52000046  50.52000046
H    23.55999947   9.68000031  50.97000122
H    22.98999977   7.65999985  54.75999832
H    14.72000027   6.57999992  55.11000061
H    25.06000137   9.81999969  53.09000015
H    25.52999878   8.23999977  52.55000305
