96

S    16.94000053  12.30999947  58.47000122
C    19.64999962  12.56000042  57.61000061
C    18.32999992  12.27000046  57.36000061
C    17.93000031  11.78999996  56.07999802
C    18.90999985  11.69000053  55.11000061
C    20.28000069  12.01000023  55.27999878
C    21.24000168  11.82000065  54.23999786
C    22.55000114  12.09000015  54.56999969
C    22.93000031  12.43999958  55.89000320
C    22.00000000  12.72999954  56.86000061
C    20.62999916  12.51000023  56.58000183
C    16.48999977  11.59999943  55.96000290
C    15.80000019  11.92999935  57.15999985
C    14.40999985  11.98999977  57.16999817
C    24.34000015  12.90999985  56.16000366
H    24.79532623  12.31238461  56.94971085
H    20.03999901  12.81000042  58.60000229
H    18.57999992  11.13000011  54.23999786
H    20.88000107  11.54999924  53.25000000
H    23.19999886  12.11999989  53.69999695
H    22.26000023  13.07000065  57.85999680
H    13.88000011  12.02999973  58.11000061
H    24.96999931  12.94000053  55.25000000
H    24.33000183  13.96000004  56.46999741
S    13.31999969  11.13999939  53.46000290
C    10.62000084  10.71000004  54.25000000
C    11.90000057  11.11999989  54.52999878
C    12.25999928  11.56999969  55.84999847
C    11.31999969  11.69000053  56.86000061
C     9.98999977  11.31000042  56.56999969
C     9.01000023  11.21999931  57.60000229
C     7.75000000  10.78999996  57.27000427
C     7.32999992  10.43000031  55.96000290
C     8.30000019  10.40999985  54.99000168
C     9.63999939  10.81999969  55.26000214
C    13.68999958  11.79999924  55.98999786
C    14.40999985  11.56999969  54.79000092
C    15.78999996  11.35000038  54.78000259
C     5.89999962  10.01000023  55.72999954
H     5.33900785  10.56389046  54.97727585
H    10.39000034  10.18000031  53.31999969
H    11.59000015  11.89000034  57.88999939
H     9.23999977  11.59999943  58.59000397
H     7.04999971  10.85000038  58.09999847
H     8.01999950  10.14999962  53.96999741
H    16.29999924  11.02000046  53.88000107
H     5.44000053   9.98000050  56.72999954
H     5.86999989   8.97999954  55.35999680
S    13.57999992   9.09000015  50.73999786
C    10.95999908   8.39999962  51.22000122
C    12.27000046   8.27999973  51.63000107
C    12.79000092   7.55000019  52.74000168
C    11.82000065   6.98000002  53.54999924
C    10.44999981   7.16000032  53.27000046
C     9.47000027   6.71000004  54.20000076
C     8.11999989   6.83000040  53.95000076
C     7.64999962   7.50000000  52.77999878
C     8.59000015   7.81000042  51.81999969
C     9.98999977   7.81000042  52.06999969
C    14.22999954   7.64999962  52.88000107
C    14.80000019   8.43999958  51.84999847
C    16.13000107   8.85999966  51.88000107
C     6.21000004   7.86000013  52.51999664
H     5.81967497   7.24257708  51.71096420
H    10.76000023   8.94999981  50.31000137
H    12.03999996   6.44000006  54.47000122
H     9.72999954   6.47000027  55.21999741
H     7.40999985   6.56000042  54.72000122
H     8.21000004   8.36999989  50.97000122
H    16.65999985   9.39000034  51.09000397
H     5.69000006   7.69000006  53.47000122
H     6.14000034   8.93000031  52.32999802
S    17.43000031   7.44999981  55.28999710
C    20.12000084   7.81000042  54.68000031
C    18.81000137   8.01000023  54.31999969
C    18.36000061   8.64000034  53.11999893
C    19.37000084   9.13999939  52.31999969
C    20.73999786   9.04999924  52.63999939
C    21.73000145   9.55000019  51.73999786
C    23.05999947   9.30000019  51.98999786
C    23.45999908   8.71000004  53.22000122
C    22.52000046   8.23999977  54.09999847
C    21.12999916   8.36999989  53.83999634
C    16.90999985   8.56999969  53.01000214
C    16.25000000   7.83999968  54.02999878
C    14.98000050   7.27999973  54.01000214
C    24.93000031   8.52000046  53.52000427
H    25.23659706   9.48969841  53.91215897
H    20.39999962   7.28999996  55.59000015
H    19.06999969   9.78999996  51.50000000
H    21.38000107  10.07999992  50.86000061
H    23.80000114   9.61999989  51.25999832
H    22.79000092   7.63000011  54.95999908
H    14.48999977   6.81999969  54.86000061
H    25.51000214   8.14999962  52.65999603
H    25.12000084   7.73999977  54.27000046
