96

S    16.72999954  11.82000065  58.67000198
C    19.37000084  12.05000019  57.94000244
C    18.09000015  11.75000000  57.54000092
C    17.69000053  11.44999981  56.19999695
C    18.70000076  11.36000061  55.26000214
C    20.05000114  11.61000061  55.61000061
C    21.19999886  11.52999973  54.77000427
C    22.47999954  11.90000057  55.13000107
C    22.70999908  12.46000099  56.42000198
C    21.65999985  12.51999950  57.30999756
C    20.36999893  12.05999947  56.93000031
C    16.23999977  11.46999931  56.04999924
C    15.62999916  11.82000065  57.27000427
C    14.23999977  11.84000015  57.34000397
C    24.09000015  12.92000008  56.84000015
H    24.58029175  12.14548016  57.42977524
H    19.70000076  12.35999966  58.93000031
H    18.43000031  11.13000011  54.22999954
H    21.09000015  11.13000011  53.76999664
H    23.25000000  11.84999943  54.38000107
H    21.86000061  12.84999943  58.31999969
H    13.78000069  11.92999935  58.31999969
H    24.70000076  13.12000084  55.94999695
H    24.07999992  13.89999962  57.34000397
S    12.96000004  10.93999958  53.70999908
C    10.34000015  10.46000004  54.56999969
C    11.61999893  10.85000038  54.86999893
C    12.02000046  11.38000011  56.13999939
C    11.03999996  11.47999954  57.11999893
C     9.68999958  11.13999939  56.90000153
C     8.60999966  11.38000011  57.80000305
C     7.28999996  11.13999939  57.48000336
C     7.04999971  10.34000015  56.32999802
C     8.03999996  10.19999981  55.38999939
C     9.38000011  10.59000015  55.61000061
C    13.45999908  11.56000042  56.22000122
C    14.13000011  11.26999950  55.00000000
C    15.51000023  11.09000015  54.91000366
C     5.59999990  10.01999950  56.03000259
H     5.10718822  10.65565491  55.29435349
H    10.18000031   9.94999981  53.61999893
H    11.32999992  11.89000034  58.09000015
H     8.82999992  11.95000076  58.69999695
H     6.44000006  11.46999931  58.08000183
H     7.76999998   9.88000011  54.38000107
H    15.93000031  10.65000057  54.02000046
H     5.07000017   9.92000008  56.97999954
H     5.75000000   9.02000046  55.59000015
S    13.76000023   8.53999996  50.79999924
C    11.06999969   8.18000031  51.52000046
C    12.39999962   7.96000004  51.77000046
C    12.84000015   7.42999983  53.02999878
C    11.90000057   6.88000011  53.88000107
C    10.52999973   6.94999981  53.53000259
C     9.51000023   6.42000008  54.36000061
C     8.15999985   6.56000042  54.13000107
C     7.75000000   7.40000010  53.06000137
C     8.67000008   7.82000017  52.12999725
C    10.06000042   7.62000036  52.34000397
C    14.28999996   7.51999950  53.16999817
C    14.92000008   8.22000027  52.11000061
C    16.22999954   8.67999935  52.05999756
C     6.30000019   7.76000023  52.85999680
H     5.93836927   7.26364374  51.95946884
H    10.88000107   8.78999996  50.63999939
H    12.18999958   6.44999981  54.82999802
H     9.94999981   5.93999958  55.22999573
H     7.42000008   6.17000008  54.81999969
H     8.46000004   8.31999969  51.18000031
H    16.64999962   9.17000008  51.18999863
H     5.75000000   7.40999985  53.74000168
H     6.15999985   8.85000038  52.78999710
S    17.57999992   6.97000027  55.40999985
C    20.22999954   7.69000006  54.71000290
C    18.86999893   7.76999998  54.48999786
C    18.40999985   8.43000031  53.31999969
C    19.26000023   8.82999992  52.29999924
C    20.63999939   8.60000038  52.47000122
C    21.56999969   9.02000046  51.47999573
C    22.92000008   9.13000011  51.72000122
C    23.42000008   8.65999985  52.97000122
C    22.56999969   8.11999989  53.89999771
C    21.15999985   8.07999992  53.70999908
C    16.95999908   8.34000015  53.20000076
C    16.39000130   7.55000019  54.22999954
C    15.08999920   7.03999996  54.20999908
C    24.90999985   8.60999966  53.16999817
H    25.26418686   8.75875854  54.19005966
H    20.65000153   7.13000011  55.54000092
H    18.92000008   9.30999947  51.38000107
H    21.11000061   9.50000000  50.61999893
H    23.54999924   9.55999947  50.94999695
H    22.92000008   7.69999981  54.84000397
H    14.72000027   6.34999990  54.97000122
H    25.50000000   9.28999996  52.55000305
H    25.17999840   7.59999990  52.81000137
