96

S    16.90999985  12.36999989  58.72000122
C    19.63999939  12.50000000  58.00000000
C    18.36000061  12.05000019  57.75000000
C    17.95999908  11.46999931  56.51000214
C    18.96999931  11.21000099  55.59999847
C    20.29000092  11.68000031  55.79000092
C    21.32999802  11.51999950  54.84000397
C    22.62000084  11.95000076  55.08999634
C    22.95999908  12.69999981  56.24000168
C    21.94999886  12.89000034  57.15999985
C    20.65000153  12.35000038  57.02000046
C    16.52000046  11.43000031  56.32999802
C    15.77999973  12.00000000  57.41000366
C    14.42000008  12.27000046  57.32999802
C    24.40000153  13.05999947  56.51000214
H    24.85446739  12.49901772  57.32661819
H    19.88999939  13.07000065  58.88999939
H    18.78999901  10.73999977  54.62999725
H    21.07999992  10.90000057  53.99000168
H    23.38000107  11.51000023  54.45999908
H    22.29000092  13.35000038  58.09000015
H    13.86999989  12.64000034  58.18999863
H    24.90999985  12.94000053  55.54999924
H    24.37000084  14.14000034  56.70000076
S    13.42000008  10.71000004  53.85000229
C    10.62999916  10.86999989  54.25000000
C    11.90999985  11.10000038  54.69999695
C    12.23999977  11.71000004  55.96000290
C    11.19999981  12.02000046  56.81999969
C     9.86999989  11.77999973  56.42000198
C     8.80000019  11.97000027  57.35000229
C     7.57999992  11.47999954  56.97999954
C     7.32999992  10.78999996  55.77000046
C     8.30000019  10.67000008  54.79999924
C     9.57999992  11.18999958  55.13999939
C    13.66000080  11.84999943  56.23000336
C    14.44000053  11.35000038  55.14999771
C    15.81999969  11.14999962  55.14999771
C     6.00000000  10.13000011  55.45999908
H     5.32292747  10.77856445  54.90408707
H    10.38000011  10.34000015  53.34000015
H    11.42000008  12.28999996  57.84999847
H     9.00000000  12.35000038  58.34999847
H     6.75000000  11.59000015  57.68000031
H     8.10999966  10.18000031  53.85000229
H    16.38000107  10.88999939  54.26000214
H     5.44000053   9.75000000  56.31999969
H     6.23000050   9.28999996  54.78000259
S    13.38999939   8.84000015  50.58000183
C    10.67999935   8.42000008  51.11999893
C    11.98999977   8.27999973  51.51000214
C    12.35999966   7.50000000  52.65999603
C    11.36999989   7.07999992  53.53000259
C    10.01999950   7.39000034  53.25000000
C     9.02000046   6.93000031  54.13999939
C     7.69000006   7.00999975  53.79000092
C     7.30999994   7.69999981  52.61000061
C     8.26000023   8.02999973  51.66999817
C     9.64999962   8.02999973  52.01000214
C    13.80000019   7.62000036  52.88000107
C    14.50000000   8.30000019  51.84999847
C    15.78999996   8.82000065  51.95999908
C     5.84999990   7.68000031  52.22000122
H     5.55065632   6.82473230  51.61418915
H    10.42000008   8.73000050  50.11000061
H    11.54999924   6.57999992  54.47000122
H     9.30999947   6.28000021  54.95999908
H     6.84000015   6.53999996  54.29000092
H     8.05000019   8.15999985  50.61000061
H    16.23999977   9.35000038  51.12999725
H     5.15999985   7.76999998  53.06999969
H     5.69999981   8.56000042  51.59999847
S    16.95999908   7.30999994  55.40999985
C    19.65999985   7.59999990  54.85000229
C    18.36000061   7.96999979  54.55999756
C    17.94999886   8.48999977  53.29000092
C    18.92000008   8.86999989  52.37999725
C    20.29000092   8.84000015  52.76000214
C    21.34000015   9.22000027  51.88000107
C    22.63999939   9.04999924  52.29000092
C    23.02999878   8.53999996  53.54999924
C    22.00000000   8.02999973  54.31000137
C    20.62000084   8.19999981  54.00000000
C    16.53000069   8.30000019  53.02000046
C    15.84000015   7.67000008  54.08000183
C    14.47999954   7.36000013  54.06999969
C    24.47999954   8.13000011  53.73000336
H    24.88462257   8.67659283  54.58183670
H    19.95000076   6.94999981  55.66999817
H    18.71000099   9.11999989  51.35000229
H    21.14000130   9.67000008  50.91999817
H    23.36000061   9.35000038  51.52999878
H    22.27000046   7.37999964  55.13999939
H    13.86000061   7.02000046  54.88999939
H    25.02000046   8.40999985  52.81999969
H    24.64999962   7.04999971  53.68999863
