96

S    16.98999977  12.00000000  58.43000031
C    19.65999985  12.02999973  57.76000214
C    18.38000107  11.72000027  57.36000061
C    18.07999992  11.44999981  55.97999954
C    19.10000038  11.23999977  55.06000137
C    20.43999863  11.47999954  55.47000122
C    21.53000069  11.46999931  54.55999756
C    22.79000092  11.78999996  55.00999832
C    23.02999878  12.23999977  56.33999634
C    22.03000069  12.15999985  57.27000427
C    20.71000099  11.84000015  56.84000015
C    16.62999916  11.40999985  55.87999725
C    15.90000057  11.71000004  57.04999924
C    14.52000046  11.77000046  57.22000122
C    24.44999886  12.56000042  56.76000214
H    24.76868629  11.79514885  57.46819687
H    19.78999901  12.46000099  58.75000000
H    18.85000038  11.02000046  54.02999878
H    21.40000153  11.26000023  53.50000000
H    23.59999847  11.54999924  54.33000183
H    22.27000046  12.39999962  58.29999924
H    14.06999969  12.13000107  58.13999939
H    25.15000153  12.56999969  55.91999817
H    24.47999954  13.55000019  57.23999786
S    13.26000023  10.80000019  53.62999725
C    10.57999992  10.39000034  54.51000214
C    11.85999966  10.84000015  54.72000122
C    12.25000000  11.36000061  55.98999786
C    11.31999969  11.49000072  57.00000000
C     9.96999931  11.09000015  56.77999878
C     8.94999981  11.18999958  57.76000214
C     7.63000011  10.95999908  57.45999908
C     7.32999992  10.21000004  56.29000092
C     8.32999992   9.85000038  55.40999985
C     9.61999989  10.43000031  55.54999924
C    13.69999981  11.44000053  56.13999939
C    14.40000057  11.05999947  54.95999908
C    15.77999973  11.09000015  54.80999756
C     5.91000032   9.76000023  56.00000000
H     5.46911955  10.42843246  55.26045609
H    10.25000000  10.15999985  53.50000000
H    11.61999893  11.77999973  58.01000214
H     9.26000023  11.46999931  58.76999664
H     6.84999990  11.14999962  58.18999863
H     8.11999989   9.30999947  54.48999786
H    16.18999863  10.67000008  53.89999771
H     5.21000004  10.00000000  56.81000137
H     5.96000004   8.71000004  55.68000031
S    17.21999931  12.82999992  52.34000397
C    19.93000031  12.63000011  51.79999924
C    18.63999939  12.38999939  51.38000107
C    18.18000031  11.92000008  50.11000061
C    19.22999954  11.61000061  49.26000214
C    20.56999969  11.97999954  49.54000092
C    21.61999893  11.84000015  48.59000397
C    22.90999985  12.27000046  48.80000305
C    23.26000023  12.69999981  50.11000061
C    22.30999947  12.79999924  51.10000229
C    20.95999908  12.46000099  50.84000015
C    16.73999977  11.84000015  49.93000031
C    16.07999992  12.25999928  51.11000061
C    14.68999958  12.23999977  51.19999695
C    24.71999931  12.98999977  50.38999939
H    25.09699440  12.58455276  51.32892990
H    20.15999985  12.98999977  52.80000305
H    18.94000053  11.31999969  48.26000214
H    21.24000168  11.54999924  47.61000061
H    23.64999962  12.07999992  48.02999878
H    22.47999954  13.20000076  52.09999847
H    14.27000046  12.56999969  52.14000320
H    25.23999977  12.51000023  49.55999756
H    24.86000061  14.06999969  50.43000031
S    13.48999977  10.95999908  47.58999634
C    10.81999969  11.18999958  48.22999954
C    12.10999966  11.47999954  48.57999802
C    12.51999950  11.92999935  49.87999725
C    11.54000092  11.98999977  50.86000061
C    10.19000053  11.64999962  50.58000183
C     9.19999981  11.59000015  51.59000015
C     7.88000011  11.23999977  51.38000107
C     7.55999994  10.72000027  50.10000229
C     8.52000046  10.72000027  49.10999680
C     9.82999992  11.26000023  49.23999786
C    13.96000004  11.92000008  50.04000092
C    14.61999989  11.47999954  48.86000061
C    16.00000000  11.56000042  48.76999664
C     6.17999983  10.21999931  49.73999786
H     5.78832006  10.78259373  48.89254761
H    10.62000084  10.54999924  47.36999893
H    11.84999943  12.22000027  51.86999893
H     9.38000011  11.98999977  52.57999802
H     7.11000013  11.36999989  52.14000320
H     8.31999969  10.22999954  48.15999985
H    16.57999992  11.30000019  47.88999939
H     5.42999983  10.29999924  50.54000092
H     6.35999966   9.15999985  49.56999969
