96

S    17.07999992  11.89000034  58.76999664
C    19.76000023  12.35000038  58.00000000
C    18.50000000  11.85999966  57.70999908
C    18.13999939  11.32999992  56.43000031
C    19.11999893  11.23000050  55.45000076
C    20.40999985  11.72999954  55.72999954
C    21.52000046  11.78999996  54.84000397
C    22.82999992  11.95000076  55.21999741
C    23.15000153  12.35999966  56.53999710
C    22.11999893  12.46999931  57.43999863
C    20.78000069  12.25000000  57.02000046
C    16.70999908  11.13000011  56.29000092
C    16.00000000  11.30000019  57.50000000
C    14.60999966  11.39999962  57.57999802
C    24.57999992  12.68000031  56.93000031
H    24.96963882  12.09908390  57.76595306
H    19.95000076  12.67000008  59.02999878
H    19.01000023  10.82999992  54.45000076
H    21.38999939  11.49000072  53.80000305
H    23.57999992  11.72999954  54.45999908
H    22.22999954  12.79000092  58.47000122
H    14.14000034  11.57999992  58.54999924
H    25.25000000  12.57999992  56.05999756
H    24.56999969  13.71999931  57.25000000
S    13.50999928  10.67000008  53.83999634
C    10.77999973  10.60999966  54.54000092
C    12.07999992  10.88000107  54.86999893
C    12.43999958  11.21999931  56.22000122
C    11.44000053  11.36000061  57.15999985
C    10.07999992  11.05999947  56.88000107
C     8.97000027  11.06999969  57.77000046
C     7.73999977  10.59999943  57.38999939
C     7.46999979  10.10000038  56.09000397
C     8.48999977  10.14000034  55.18000031
C     9.77000046  10.65999985  55.52999878
C    13.88000011  11.21000099  56.40999603
C    14.60000038  10.90000057  55.21999741
C    15.98999977  10.88000107  55.11000061
C     6.05999994   9.76000023  55.65999985
H     5.58329058  10.38612652  54.90580368
H    10.57000065  10.15999985  53.56999969
H    11.64999962  11.50000000  58.20999908
H     9.23999977  11.43000031  58.75999832
H     6.94000006  10.84000015  58.09000015
H     8.34000015   9.80000019  54.15000153
H    16.40999985  10.80000019  54.12000275
H     5.42000008   9.78999996  56.55000305
H     6.06999969   8.71000004  55.34000015
S    17.38000107  12.60000038  52.60000229
C    20.07999802  12.68000031  51.84000015
C    18.78000069  12.36999989  51.52999878
C    18.46999931  11.97000027  50.19000244
C    19.50000000  11.89000034  49.27000046
C    20.85000038  12.20000076  49.56999969
C    21.87999916  12.10000038  48.59000397
C    23.18000031  12.23000050  48.99000168
C    23.46999931  12.75000000  50.27999878
C    22.47999954  13.04999924  51.18000031
C    21.14999962  12.61000061  50.90999985
C    17.02999878  11.77999973  50.07999802
C    16.32999992  12.25999928  51.20999908
C    14.94999981  12.43999958  51.17000198
C    24.92000198  13.05999947  50.56999969
H    25.37598801  12.50426674  51.38935089
H    20.23999977  13.38000107  52.65999603
H    19.30999947  11.64000034  48.22999954
H    21.56999969  11.90999985  47.56000137
H    24.00000000  12.15999985  48.27999878
H    22.77000046  13.50000000  52.12999725
H    14.40999985  12.71999931  52.06999969
H    25.59999847  13.01000023  49.71000290
H    24.90999985  14.13000011  50.83000183
S    13.93000031  11.21999931  47.50000000
C    11.18000031  11.54999924  48.02999878
C    12.48999977  11.61000061  48.44999695
C    12.79000092  12.03999996  49.79000092
C    11.78999996  12.28999996  50.70999908
C    10.44999981  12.15000057  50.27999878
C     9.44000053  12.10999966  51.29000092
C     8.14000034  11.77999973  50.97000122
C     7.86000013  11.30000019  49.66999817
C     8.76999950  11.36000061  48.62999725
C    10.11000061  11.68000031  48.95999908
C    14.22000027  12.10000038  50.02999878
C    14.93999958  11.59000015  48.90999603
C    16.32999992  11.49000072  48.89999771
C     6.46000004  10.78999996  49.41999817
H     5.89137506  11.43681049  48.75186539
H    10.84000015  10.98000050  47.16999817
H    11.89000034  12.48000050  51.77999878
H     9.73999977  12.23000050  52.31999969
H     7.40000010  11.78999996  51.77000046
H     8.63000011  10.88999939  47.65999603
H    16.84000015  11.05000019  48.06000137
H     5.89999962  10.67999935  50.34999847
H     6.50000000   9.73999977  49.09000015
