96

S    16.52000046  11.79999924  58.92000198
C    19.26000023  11.97999954  58.15999985
C    17.97000122  11.56000042  57.93000031
C    17.57999992  11.10000038  56.63000107
C    18.50000000  11.10000038  55.59999847
C    19.79999924  11.61000061  55.79999924
C    20.81999969  11.44000053  54.81999969
C    22.13999939  11.72999954  55.06999969
C    22.52000046  12.27000046  56.31999969
C    21.55999947  12.36999989  57.30999756
C    20.17999840  12.11999989  57.09000015
C    16.13999939  11.14999962  56.39999771
C    15.40999985  11.47999954  57.56999969
C    14.02999973  11.64999962  57.68000031
C    23.95000076  12.69000053  56.52999878
H    24.34922791  12.00561047  57.27854919
H    19.57999992  12.06999969  59.20000076
H    18.18000031  10.73999977  54.61999893
H    20.48999977  10.97000027  53.88999939
H    22.88000107  11.68000031  54.27999878
H    21.84000015  12.48000050  58.36000061
H    13.57999992  11.84999943  58.64999771
H    24.48999786  12.60000038  55.58000183
H    23.97999954  13.71999931  56.93000031
S    12.92000008  10.43000031  54.06999969
C    10.25000000  10.27999973  54.79999924
C    11.52999973  10.60999966  55.15999603
C    11.90999985  11.10000038  56.45000076
C    10.93000031  11.25000000  57.41000366
C     9.59999943  10.90000057  57.06999969
C     8.55000019  11.23999977  57.97999954
C     7.23000002  11.18000031  57.62000275
C     6.84000015  10.57999992  56.39999771
C     7.83999968  10.15999985  55.54999924
C     9.22000027  10.42000008  55.77000046
C    13.32999992  11.42000008  56.49000168
C    14.02999973  10.98999977  55.34000015
C    15.40999985  10.77999973  55.27000046
C     5.42999983  10.11999989  56.12999725
H     4.99705791  10.59552670  55.24991989
H    10.07999992   9.92999935  53.79000092
H    11.05000019  11.72999954  58.37999725
H     8.76999950  11.73999977  58.92000198
H     6.44000006  11.44000053  58.33000183
H     7.63999987   9.63000011  54.61999893
H    15.85000038  10.29999924  54.40000153
H     4.73000002  10.27999973  56.95999908
H     5.46000004   9.02999973  56.02000427
S    17.05000114  12.28000069  52.52999878
C    19.76000023  12.51999950  51.83000183
C    18.46999931  12.18999958  51.46999741
C    18.04000092  11.72999954  50.18000031
C    19.05999947  11.56999969  49.25000000
C    20.38999939  11.97999954  49.51000214
C    21.40999985  11.79999924  48.54999924
C    22.72000122  12.05000019  48.87000275
C    23.02000046  12.67000008  50.11000061
C    22.06000137  12.96000004  51.04999924
C    20.73999786  12.48999977  50.80999756
C    16.61000061  11.54999924  50.02999878
C    15.92000008  11.92000008  51.20999908
C    14.53999996  11.98999977  51.31999969
C    24.41999817  13.00000000  50.59999847
H    24.73290825  12.35995865  51.42494202
H    19.95000076  12.86999893  52.84999847
H    18.89000130  11.07999992  48.29999924
H    21.11000061  11.32999992  47.61000061
H    23.52000046  11.82000065  48.15999985
H    22.27999878  13.40000057  52.02000046
H    14.06000042  12.18000031  52.28000259
H    25.05000114  12.75000000  49.73999786
H    24.41999817  14.06000042  50.84999847
S    13.38000107  10.86999989  47.69000244
C    10.65999985  11.13999939  48.29000092
C    11.97000027  11.35000038  48.64999771
C    12.38000011  11.85999966  49.93000031
C    11.36000061  12.00000000  50.84000015
C     9.98999977  11.78999996  50.56000137
C     9.03999996  11.67000008  51.60999680
C     7.73999977  11.35000038  51.33999634
C     7.35000038  10.98999977  50.01999664
C     8.27999973  10.93999958  49.01000214
C     9.63000011  11.32999992  49.23999786
C    13.82999992  11.79999924  50.13000107
C    14.51000023  11.26999950  49.01000214
C    15.88999939  11.18000031  48.88999939
C     5.89999962  10.65000057  49.75999832
H     5.57944536  11.12727070  48.83395386
H    10.44999981  10.71000004  47.30999756
H    11.64000034  12.25999928  51.86000061
H     9.51000023  11.75000000  52.58999634
H     7.00000000  11.31000042  52.14000320
H     8.06999969  10.46000004  48.06000137
H    16.45000076  10.70000076  48.09000015
H     5.45000029  11.05999947  50.66999817
H     5.66999960   9.56999969  49.71000290
