96

S    16.43000031  12.48000050  58.44999695
C    19.15999985  12.48999977  57.97999954
C    17.89999962  12.41000080  57.44999695
C    17.60000038  11.90999985  56.13999939
C    18.60000038  11.72999954  55.20999908
C    19.89999962  11.97999954  55.70000076
C    20.96999931  11.90000057  54.75999832
C    22.27000046  12.17000008  55.11000061
C    22.65999985  12.35000038  56.46999741
C    21.61000061  12.51999950  57.35000229
C    20.22999954  12.34000015  57.05999756
C    16.18999863  11.57999992  55.94999695
C    15.44000053  11.82999992  57.12999725
C    14.07999992  12.10000038  57.11999893
C    24.05999947  12.79000092  56.81999969
H    24.47267342  12.35598087  57.73072815
H    19.34000015  12.76000023  59.02000046
H    18.40999985  11.23000050  54.26000214
H    20.78000069  11.56999969  53.74000168
H    23.03999901  12.42000008  54.38999939
H    21.84999847  12.76000023  58.37999725
H    13.67000008  12.44999981  58.06999969
H    24.73999977  12.61000061  55.98999786
H    24.02000046  13.89000034  56.86999893
S    13.03999996  10.84000015  53.48999786
C    10.43000031  10.52999973  54.31999969
C    11.65999985  11.06999969  54.59000015
C    11.95000076  11.67000008  55.86000061
C    10.95999908  11.80999947  56.81999969
C     9.63999939  11.39999962  56.51000214
C     8.53999996  11.47999954  57.42000198
C     7.30999994  10.95999908  57.11999893
C     7.03000021  10.32999992  55.86999893
C     8.10999966  10.15999985  55.02999878
C     9.40999985  10.67999935  55.28999710
C    13.40000057  11.79999924  55.93999863
C    14.11999893  11.36000061  54.79999924
C    15.50000000  11.25000000  54.78000259
C     5.64000034   9.92999935  55.43000031
H     5.19221830  10.69051838  54.79030991
H    10.27999973  10.01999950  53.36999893
H    11.18999958  12.10000038  57.84000015
H     8.78000069  11.87999916  58.40000153
H     6.51999998  10.97000027  57.85999680
H     7.99000025   9.64999962  54.08000183
H    16.10000038  11.18999958  53.88000107
H     5.12000036   9.89000034  56.38999939
H     5.59999990   8.88000011  55.12000275
S    17.30999947  12.84000015  52.31999969
C    20.00999832  12.89000034  51.70000076
C    18.71999931  12.63000011  51.26999664
C    18.38999939  12.18000031  49.94999695
C    19.40000153  12.09000015  49.01000214
C    20.71000099  12.44999981  49.40999985
C    21.76000214  12.31999969  48.46000290
C    23.06999969  12.51999950  48.81999969
C    23.44000053  13.01000023  50.10000229
C    22.40999985  13.17999935  51.00000000
C    21.05999947  12.77999973  50.76000214
C    16.94000053  12.05000019  49.84000397
C    16.21000099  12.36999989  51.00999832
C    14.82999992  12.56000042  51.11000061
C    24.89000130  13.28999996  50.43000031
H    25.19568253  12.79948807  51.35415268
H    20.26000023  13.30999947  52.65999603
H    19.23999977  11.94000053  47.94000244
H    21.40000153  11.90999985  47.51999664
H    23.77000046  12.43999958  48.00000000
H    22.60999870  13.73000050  51.91999817
H    14.34999943  12.68000031  52.06999969
H    25.59000015  13.02000046  49.62999725
H    24.96999931  14.37000084  50.61000061
S    13.68999958  11.23999977  47.56000137
C    10.98000050  11.28999901  48.20000076
C    12.25999928  11.68000031  48.50999832
C    12.64000034  12.13999939  49.80999756
C    11.67000008  12.28000069  50.77999878
C    10.32999992  11.95000076  50.45999908
C     9.26999950  12.10000038  51.39999771
C     7.95000029  11.78999996  51.17000198
C     7.64999962  11.11999989  49.95999908
C     8.59000015  11.07999992  48.95000076
C     9.94999981  11.46000004  49.15999985
C    14.09000015  12.23999977  49.97000122
C    14.80000019  11.75000000  48.83999634
C    16.18999863  11.72000027  48.70999908
C     6.21000004  10.80999947  49.61000061
H     5.78247547  11.51541424  48.89746094
H    10.80999947  10.69000053  47.30999756
H    12.02000046  12.58999920  51.76000214
H     9.55000019  12.50000000  52.36999893
H     7.13999987  12.13000107  51.79999924
H     8.28999996  11.03999996  47.90999985
H    16.69999886  11.44000053  47.80000305
H     5.72000027  10.80999947  50.59000015
H     6.23000050   9.81000042  49.15999985
