96

S    16.61999893  12.44999981  58.25000000
C    19.34000015  12.44999981  57.70999908
C    18.05999947  12.22000027  57.25000000
C    17.71000099  11.64000034  55.98999786
C    18.68000031  11.59000015  55.00000000
C    20.02000046  11.84000015  55.37000275
C    21.09999847  11.47999954  54.52000046
C    22.40999985  11.57999992  54.93000031
C    22.72000122  12.27000046  56.12999725
C    21.68999863  12.61999989  56.97000122
C    20.32999992  12.28000069  56.70999908
C    16.27000046  11.52999973  55.79000092
C    15.53999996  11.90999985  56.95000076
C    14.15999985  12.02000046  56.93999863
C    24.14999962  12.65999985  56.40999603
H    24.50641251  12.09686661  57.27252197
H    19.48999977  13.01000023  58.62999725
H    18.46999931  11.05000019  54.08000183
H    20.95999908  11.25000000  53.47000122
H    23.16999817  11.21999931  54.23999786
H    21.93000031  13.02999973  57.95000076
H    13.59000015  12.48000050  57.74000168
H    24.87999916  12.44999981  55.61999893
H    24.21999931  13.73000050  56.63999939
S    13.07000065  11.00999928  53.26000214
C    10.36000061  10.81999969  53.99000168
C    11.64999962  11.18000031  54.31000137
C    12.02999973  11.77999973  55.56000137
C    10.98999977  12.03999996  56.43000031
C     9.63999939  11.64000034  56.22000122
C     8.67000008  11.49000072  57.23999786
C     7.44999981  10.88999939  57.02000046
C     7.05999947  10.50000000  55.70999908
C     8.01999950  10.54999924  54.72999954
C     9.32999992  11.05000019  54.93999863
C    13.47000027  11.73999977  55.75000000
C    14.18000031  11.33999920  54.59000015
C    15.57000065  11.25000000  54.61999893
C     5.73000002   9.82999992  55.43000031
H     5.04421520  10.50864124  54.92280579
H    10.07999992  10.34999943  53.06000137
H    11.16000080  12.27000046  57.48000336
H     9.00000000  11.71000004  58.25000000
H     6.76000023  10.84000015  57.84999847
H     7.73999977  10.21999931  53.73000336
H    16.11999893  11.06999969  53.69999695
H     5.22000027   9.46000004  56.32999802
H     6.11999989   8.97999954  54.86000061
S    16.90000153  12.92000008  52.34000397
C    19.63999939  13.10999966  51.72999954
C    18.38999939  12.63000011  51.42000198
C    18.01000023  12.02999973  50.18000031
C    19.02000046  11.87999916  49.23999786
C    20.36999893  12.22000027  49.48999786
C    21.31999969  12.07999992  48.43999863
C    22.62000084  12.41000080  48.72000122
C    22.95000076  13.02999973  49.95999908
C    21.98999786  13.27000046  50.90999985
C    20.62999916  12.86000061  50.75000000
C    16.57999992  11.84999943  49.94999695
C    15.85000038  12.51999950  50.96000290
C    14.47000027  12.69000053  50.94999695
C    24.38999939  13.38999939  50.24000168
H    24.75358200  12.89096546  51.13826370
H    19.88999939  13.55000019  52.70000076
H    18.76000023  11.44000053  48.27999878
H    21.00000000  11.65999985  47.48000336
H    23.36999893  12.46999931  47.94000244
H    22.22999954  13.83999920  51.79999924
H    13.92000008  13.03999996  51.81999969
H    25.03000069  13.32999992  49.34999847
H    24.26000214  14.46000004  50.45000076
S    13.35999966  11.18000031  47.49000168
C    10.67999935  11.13000011  48.15999985
C    11.94000053  11.56999969  48.47999954
C    12.25999928  12.07999992  49.78000259
C    11.26000023  12.30000019  50.70000076
C     9.92000008  11.97999954  50.35999680
C     8.85999966  12.13000107  51.29000092
C     7.55999994  11.76000023  51.03000259
C     7.31999969  11.05999947  49.81999969
C     8.32999992  10.80000019  48.92000198
C     9.63999939  11.33999920  49.10999680
C    13.71000099  12.23999977  49.86999893
C    14.46000004  11.71000004  48.77999878
C    15.80000019  11.38000011  48.88000107
C     5.92999983  10.54999924  49.50000000
H     5.52641392  11.15183830  48.68574524
H    10.50000000  10.57999992  47.25000000
H    11.36999989  12.75000000  51.68000031
H     9.06999969  12.53999901  52.27000427
H     6.80000019  12.05999947  51.73999786
H     8.17000008  10.08999920  48.11999893
H    16.36999893  10.93999958  48.06999969
H     5.26999998  10.70000076  50.35999680
H     6.02999973   9.48000050  49.33000183
