96

S    16.87000084  12.23000050  58.43999863
C    19.50000000  12.31999969  57.67000198
C    18.22999954  11.90999985  57.35000229
C    17.89999962  11.54999924  56.00999832
C    18.94000053  11.44000053  55.10000229
C    20.20000076  12.02000046  55.37000275
C    21.31000137  12.00000000  54.47000122
C    22.62000084  12.23999977  54.77000427
C    22.93999863  12.61999989  56.10000229
C    21.91999817  12.61000061  57.04000092
C    20.56999969  12.30999947  56.72999954
C    16.46000099  11.40999985  55.90999985
C    15.78999996  11.78999996  57.09999847
C    14.42000008  11.95000076  57.21000290
C    24.37999916  12.86000061  56.49000168
H    24.72254753  12.14636135  57.23932266
H    19.67000008  12.77999973  58.64999771
H    18.78000069  11.03999996  54.09999847
H    21.09999847  11.49000072  53.53000259
H    23.42000008  11.97000027  54.08000183
H    22.01000023  12.76999950  58.11000061
H    13.97999954  12.32999992  58.13000107
H    25.00999832  12.98999977  55.59999847
H    24.30999947  13.88000011  56.90000153
S    13.20000076  10.78999996  53.61000061
C    10.54999924  10.67000008  54.38999939
C    11.84000015  11.00999928  54.72999954
C    12.18999958  11.54000092  56.00999832
C    11.19999981  11.82999992  56.93000031
C     9.85999966  11.49000072  56.63000107
C     8.85999966  11.69000053  57.63000107
C     7.59000015  11.23999977  57.34000397
C     7.23999977  10.65999985  56.10000229
C     8.18000031  10.59000015  55.08999634
C     9.52999973  10.95999908  55.33000183
C    13.63999939  11.54000092  56.11999893
C    14.32000065  11.18999958  54.93000031
C    15.69000053  11.02000046  54.79999924
C     5.78000021  10.44000053  55.79000092
H     5.28657293  10.96918297  54.97477341
H    10.22999954  10.34000015  53.40999985
H    11.54000092  12.25000000  57.88000107
H     9.02999973  12.31999969  58.50000000
H     6.84000015  11.52999973  58.06999969
H     7.88000011  10.03000069  54.20999908
H    16.20000076  10.78999996  53.87000275
H     5.13999987  10.53999996  56.68000031
H     5.59999990   9.38000011  55.56000137
S    17.15999985  12.86000061  52.36000061
C    19.81999969  13.17999935  51.53999710
C    18.56999969  12.65999985  51.30000305
C    18.20999908  11.97999954  50.08999634
C    19.23999977  11.75000000  49.20000076
C    20.56999969  12.13999939  49.51000214
C    21.64999962  11.85999966  48.61999893
C    22.88000107  12.41000080  48.88000107
C    23.23999786  13.07000065  50.07999802
C    22.23999977  13.31999969  50.98999786
C    20.90999985  12.90999985  50.66999817
C    16.77000046  11.84999943  49.93000031
C    16.06999969  12.27000046  51.09000397
C    14.68999958  12.41000080  51.07999802
C    24.70000076  13.30999947  50.40000153
H    25.06329346  12.71875572  51.24056625
H    19.96999931  13.68000031  52.49000168
H    19.06999969  11.21000099  48.27000046
H    21.44000053  11.38000011  47.67000198
H    23.59999847  12.28000069  48.06999969
H    22.49000168  13.68000031  51.97999954
H    14.27000046  12.97999954  51.90000153
H    25.25000000  13.02000046  49.50000000
H    24.90999985  14.34999943  50.65000153
S    13.55999947  10.86999989  47.58999634
C    10.85999966  10.93000031  48.27000046
C    12.13999939  11.35000038  48.54999924
C    12.51000023  11.96000004  49.79000092
C    11.54999924  12.06999969  50.79000092
C    10.19999981  11.79999924  50.47000122
C     9.17000008  12.00000000  51.43000031
C     7.86000013  11.71000004  51.11999893
C     7.51999950  11.11999989  49.86999893
C     8.47000027  11.00999928  48.88999939
C     9.82999992  11.30000019  49.16999817
C    13.94999981  12.05000019  49.93999863
C    14.65000057  11.50000000  48.83999634
C    16.03000069  11.28000069  48.88999939
C     6.06999969  10.85999966  49.52999878
H     5.70039463  11.40730095  48.66284561
H    10.57999992  10.47000027  47.31999969
H    11.94000053  12.25999928  51.79000092
H     9.38000011  12.39999962  52.42000198
H     7.07999992  11.94000053  51.83000183
H     8.19999981  10.73999977  47.87000275
H    16.69999886  10.82999992  48.16999817
H     5.46000004  11.00000000  50.44000244
H     6.10000038   9.77999973  49.38000107
