96

S    17.04000092  12.58999920  58.34000015
C    19.69000053  12.81999969  57.50000000
C    18.43000031  12.30999947  57.28000259
C    18.07999992  11.65999985  56.05999756
C    19.02000046  11.56999969  55.05000305
C    20.29999924  12.13000107  55.21999741
C    21.34000015  11.92000008  54.27000046
C    22.60999870  12.38999939  54.47999954
C    22.93999863  13.12999916  55.65000153
C    21.96000099  13.32999992  56.59000015
C    20.65000153  12.77999973  56.45999908
C    16.68000031  11.26999950  56.12999725
C    15.95000076  11.71000004  57.25999832
C    14.55999947  11.65999985  57.38999939
C    24.37999916  13.35999966  56.07999802
H    24.71470642  12.62649155  56.81350708
H    19.96000099  13.31999969  58.43999863
H    18.77000046  11.05999947  54.10999680
H    21.12999916  11.36000061  53.36000061
H    23.42000008  12.22000027  53.77999878
H    22.30999947  13.69999981  57.55000305
H    13.99000072  11.98999977  58.26000214
H    24.96999931  13.38000107  55.15999603
H    24.43000031  14.37000084  56.47999573
S    13.55999947  10.21000004  53.80000305
C    10.80999947  10.29999924  54.40000153
C    12.10999966  10.53999996  54.77000427
C    12.41000080  11.07999992  56.05999756
C    11.36999989  11.32999992  56.93999863
C    10.01999950  11.05000019  56.60999680
C     8.90999985  11.10000038  57.49000168
C     7.68000031  10.59000015  57.14000320
C     7.40999985  10.05000019  55.84999847
C     8.47999954   9.90999985  55.00000000
C     9.75000000  10.47000027  55.31999969
C    13.83999920  11.19999981  56.29000092
C    14.56999969  10.72999954  55.17000198
C    15.95999908  10.70000076  55.06999969
C     6.05000019   9.50000000  55.51000214
H     5.38402939  10.22973347  55.04948807
H    10.59999943   9.81999969  53.43999863
H    11.61000061  11.76000023  57.90999985
H     9.15999985  11.39999962  58.50000000
H     6.86999989  10.47999954  57.84999847
H     8.27999973   9.47000027  54.02000046
H    16.44000053  10.34000015  54.16999817
H     5.71000004   9.19999981  56.51000214
H     6.30999994   8.67000008  54.84000397
S    17.29999924  12.65999985  52.34000397
C    19.86999893  13.21000004  51.38999939
C    18.61999893  12.67000008  51.16000366
C    18.22000122  12.09000015  49.91000366
C    19.22999954  11.92999935  48.99000168
C    20.58000183  12.28000069  49.22999954
C    21.59000015  12.18000031  48.22999954
C    22.90999985  12.44999981  48.53000259
C    23.22000122  13.07999992  49.75999832
C    22.26000023  13.27000046  50.72000122
C    20.89999962  12.98999977  50.44000244
C    16.77000046  12.01000023  49.79000092
C    16.14999962  12.31999969  51.03000259
C    14.78000069  12.23999977  51.20999908
C    24.64999962  13.48999977  50.05000305
H    25.05534363  12.93531990  50.89624405
H    20.13999939  13.50999928  52.38999939
H    19.02000046  11.57999992  47.97999954
H    21.38000107  11.73999977  47.25999832
H    23.68000031  12.34000015  47.77000046
H    22.50999832  13.75000000  51.66999817
H    14.40999985  12.03999996  52.21000290
H    25.32999992  13.30000019  49.20000076
H    24.60000038  14.57999992  50.18000031
S    13.55999947  11.05999947  47.62000275
C    10.88000107  10.80999947  48.33000183
C    12.17000008  11.06999969  48.73000336
C    12.56999969  11.51000023  50.04000092
C    11.54999924  11.61999893  50.96000290
C    10.19999981  11.31999969  50.63999939
C     9.17000008  11.44000053  51.62000275
C     7.86999989  11.25000000  51.22000122
C     7.48000050  10.81999969  49.93000031
C     8.48999977  10.67000008  49.00000000
C     9.85999966  10.92000008  49.31000137
C    13.99000072  11.82000065  50.13000107
C    14.67000008  11.52999973  48.92000198
C    16.03999901  11.59000015  48.67000198
C     6.05999994  10.46000004  49.55999756
H     5.65607214  11.16155910  48.83009720
H    10.59999943  10.46000004  47.35000229
H    11.82999992  11.78999996  52.00000000
H     9.44000053  11.71000004  52.63999939
H     7.09000015  11.28999901  51.97999954
H     8.25000000  10.44999981  47.97000122
H    16.55999947  11.26999950  47.77999878
H     5.50000000  10.57999992  50.50000000
H     5.95000029   9.42000008  49.22000122
