96

S    16.72999954  12.43999958  58.68999863
C    19.42000008  12.64000034  57.91999817
C    18.17000008  12.11999989  57.70000076
C    17.84000015  11.39999962  56.51000214
C    18.84000015  11.36999989  55.56000137
C    20.17999840  11.71000004  55.84999847
C    21.28999901  11.57999992  54.95999908
C    22.59000015  11.90000057  55.25000000
C    22.90999985  12.56000042  56.46999741
C    21.86000061  12.81999969  57.30999756
C    20.52999878  12.36999989  57.08000183
C    16.40999985  11.14999962  56.38000107
C    15.67999935  11.80999947  57.41000366
C    14.29999924  11.92999935  57.34000397
C    24.28999901  13.07000065  56.83000183
H    24.76136589  12.47007942  57.60846710
H    19.55000114  13.15000057  58.88000107
H    18.61999893  10.85000038  54.62999725
H    20.97999954  11.19999981  53.99000168
H    23.35000038  11.87999916  54.47000122
H    22.04000092  13.47000027  58.16999817
H    13.78000069  12.36999989  58.18000031
H    24.89999962  13.05999947  55.91999817
H    24.10000038  14.11000061  57.11999893
S    13.36999989  10.51000023  53.74000168
C    10.64000034  10.75000000  54.20000076
C    11.92000008  11.07999992  54.59000015
C    12.22000027  11.68000031  55.84999847
C    11.18999958  11.92000008  56.75000000
C     9.88000011  11.54000092  56.39999771
C     8.89000034  11.76000023  57.41000366
C     7.62000036  11.32999992  57.09999847
C     7.34000015  10.59000015  55.91999817
C     8.26000023  10.46000004  54.91000366
C     9.57999992  10.95999908  55.11000061
C    13.63999939  11.59999943  56.13999939
C    14.40000057  11.03999996  55.08999634
C    15.77000046  10.81999969  55.18000031
C     5.88000011  10.26999950  55.66999817
H     5.35995674  10.97526360  55.02172470
H    10.55999947  10.21000004  53.26000214
H    11.36000061  12.28000069  57.76000214
H     9.15999985  12.30000019  58.30999756
H     6.81999969  11.51999950  57.80000305
H     7.96999979  10.07999992  53.93000031
H    16.31000137  10.52000046  54.29000092
H     5.40000010  10.38000011  56.65000153
H     5.77000046   9.22999954  55.34000015
S    17.05999947  12.48000050  52.55000305
C    19.77000046  12.84000015  51.86999893
C    18.50000000  12.43000031  51.52000046
C    18.20999908  12.00000000  50.19000244
C    19.23999977  11.92000008  49.26000214
C    20.55000114  12.28999996  49.64000320
C    21.61999893  12.25999928  48.70999908
C    22.82999992  12.86999893  48.95999908
C    23.09999847  13.43999958  50.22999573
C    22.11999893  13.40000057  51.19999695
C    20.84000015  12.84999943  50.93999863
C    16.77000046  11.97000027  49.98000336
C    16.00000000  12.20000076  51.14999771
C    14.63999939  12.43000031  51.20999908
C    24.51000023  13.82999992  50.63000107
H    24.91572189  13.11820412  51.34891510
H    19.96999931  13.10999966  52.90000153
H    19.04999924  11.63000011  48.22999954
H    21.53000069  11.76000023  47.75000000
H    23.65999985  12.69999981  48.27999878
H    22.36000061  13.71000099  52.21000290
H    14.13000011  12.69000053  52.12999725
H    25.17000008  13.86999989  49.75000000
H    24.47000122  14.81999969  51.10000229
S    13.56999969  10.93000031  47.64999771
C    10.93000031  10.59000015  48.41999817
C    12.17000008  11.10999966  48.73000336
C    12.50000000  11.68000031  50.00000000
C    11.47999954  11.78999996  50.91999817
C    10.15999985  11.43000031  50.56999969
C     9.10000038  11.76000023  51.45999908
C     7.78999996  11.51000023  51.14999771
C     7.46999979  10.85999966  49.93000031
C     8.47000027  10.52999973  49.03999710
C     9.85000038  10.80999947  49.29999924
C    13.92000008  11.97999954  50.08999634
C    14.61999989  11.54000092  48.94000244
C    16.01000023  11.65999985  48.85000229
C     6.02999973  10.57000065  49.58000183
H     5.63196278  11.21681023  48.79814148
H    10.88999939  10.19000053  47.41000366
H    11.65999985  12.18000031  51.91999817
H     9.48000050  12.28000069  52.34000397
H     7.02000046  11.64000034  51.90999985
H     8.15999985  10.07999992  48.11000061
H    16.46000099  11.44999981  47.88000107
H     5.44000053  10.60999966  50.51000214
H     6.07999992   9.52999973  49.25000000
