96

S    17.12000084  12.46000099  58.53000259
C    19.85000038  12.43000031  57.75000000
C    18.53000069  12.10000038  57.50999832
C    18.19000053  11.46999931  56.27999878
C    19.13999939  11.30000019  55.27999878
C    20.48999977  11.63000011  55.52999878
C    21.56999969  11.36999989  54.64000320
C    22.86999893  11.69000053  54.98000336
C    23.21000099  12.25000000  56.24000168
C    22.20999908  12.48000050  57.15999985
C    20.86999893  12.13999939  56.81999969
C    16.75000000  11.28000069  56.18000031
C    16.03000069  11.87000084  57.25999832
C    14.65000057  12.05000019  57.27000427
C    24.70000076  12.43000031  56.45999908
H    25.05073738  12.01484203  57.40484238
H    20.03000069  12.97999954  58.67000198
H    18.92000008  10.82999992  54.33000183
H    21.35000038  10.88999939  53.68999863
H    23.67000198  11.31999969  54.34999847
H    22.47999954  12.81000042  58.15999985
H    14.14999962  12.53999901  58.09000015
H    25.25000000  11.97999954  55.61999893
H    24.93999863  13.50000000  56.45999908
S    13.52000046  10.44000053  53.82999802
C    10.80000019  10.57000065  54.47999954
C    12.09000015  10.97000027  54.73999786
C    12.46000099  11.59999943  55.97000122
C    11.46999931  11.89000034  56.90000153
C    10.13000011  11.51999950  56.65000153
C     9.07999992  11.71000004  57.58999634
C     7.76000023  11.47999954  57.28000259
C     7.37999964  10.88999939  56.04000092
C     8.39999962  10.57999992  55.17000198
C     9.77999973  10.86999989  55.40999985
C    13.89999962  11.59999943  56.18000031
C    14.60999966  11.00999928  55.10000229
C    15.98000050  10.80000019  55.11000061
C     6.01999998  10.29000092  55.79000092
H     5.38748598  11.06465244  55.35647964
H    10.59000015  10.01000023  53.56999969
H    11.68000031  12.15999985  57.93000031
H     9.43000031  11.92999935  58.59000397
H     7.00000000  11.71000004  58.02000046
H     8.18000031  10.07999992  54.23999786
H    16.55999947  10.39000034  54.29000092
H     5.55000019   9.98999977  56.73999786
H     6.21000004   9.42000008  55.13999939
S    13.73000050   8.75000000  50.86000061
C    11.10000038   8.00000000  51.45000076
C    12.43999958   7.85000038  51.69000244
C    12.94000053   7.22000027  52.88000107
C    12.09000015   6.63999987  53.80000305
C    10.71000004   6.60000038  53.52000427
C     9.73999977   6.03999996  54.40000153
C     8.38999939   6.26999950  54.31000137
C     7.94000053   7.03999996  53.20000076
C     8.84000015   7.60999966  52.34000397
C    10.25000000   7.39000034  52.39999771
C    14.37999916   7.36999989  53.02999878
C    14.94999981   8.18000031  52.02000046
C    16.25000000   8.64999962  52.11000061
C     6.50000000   7.49000025  53.09999847
H     5.98749638   7.09138632  52.22447205
H    10.67000008   8.67999935  50.70999908
H    12.43000031   6.19000006  54.72999954
H    10.15999985   5.51999998  55.26000214
H     7.69999981   6.03999996  55.12000275
H     8.50000000   8.27999973  51.56000137
H    16.70999908   9.22000027  51.31000137
H     5.93999958   7.11999989  53.95999908
H     6.47000027   8.59000015  53.09999847
S    17.71000099   6.98999977  55.35999680
C    20.35000038   7.76999998  54.79999924
C    19.03000069   7.67000008  54.40000153
C    18.56999969   8.22000027  53.15999985
C    19.52999878   8.82000065  52.36999893
C    20.93000031   8.78000069  52.63000107
C    21.87000084   9.11000061  51.62000275
C    23.22000122   9.06999969  51.88000107
C    23.64000130   8.60999966  53.15999985
C    22.73999977   8.14000034  54.09000015
C    21.32999802   8.19000053  53.88000107
C    17.11000061   8.19000053  53.11999893
C    16.48999977   7.46999979  54.16999817
C    15.15999985   7.07000017  54.15999985
C    25.12000084   8.43999958  53.41999817
H    25.42549324   8.50393963  54.46435547
H    20.63999939   7.13999987  55.63999939
H    19.11000061   9.30999947  51.51000214
H    21.61999893   9.36999989  50.59999847
H    23.98999977   9.22000027  51.11999893
H    23.09000015   7.69000006  55.00999832
H    14.68999958   6.51999998  54.97000122
H    25.66999817   9.19000053  52.83000183
H    25.55999947   7.57000017  52.91999817
