96

S    16.29999924  12.18000031  58.29000092
C    18.98999977  12.39999962  57.49000168
C    17.70000076  12.01000023  57.21000290
C    17.36999893  11.39999962  55.96000290
C    18.27000046  11.31000042  54.91000366
C    19.61000061  11.59999943  55.24000168
C    20.59999847  11.49000072  54.20999908
C    21.90999985  11.69999981  54.54999924
C    22.27000046  12.13999939  55.84999847
C    21.35000038  12.38999939  56.84999847
C    19.97999954  12.18000031  56.50000000
C    15.93000031  11.36999989  55.76000214
C    15.24000072  11.72999954  56.93999863
C    13.86000061  11.89000034  56.98999786
C    23.72999954  12.36999989  56.13999939
H    24.15818405  11.84904575  56.99636841
H    19.29999924  12.55000019  58.52000427
H    18.09000015  10.95000076  53.89999771
H    20.29999924  11.14999962  53.22999954
H    22.62000084  11.59999943  53.73000336
H    21.70999908  12.90999985  57.72999573
H    13.35000038  12.18999958  57.88999939
H    24.37000084  12.06999969  55.28999710
H    23.84000015  13.45999908  56.25999832
S    12.69000053  10.93000031  53.29000092
C    10.03000069  10.69000053  54.02999878
C    11.31000042  11.02000046  54.40999985
C    11.69999981  11.44000053  55.72000122
C    10.71000004  11.61999893  56.65999985
C     9.34000015  11.42000008  56.32999802
C     8.36000061  11.40999985  57.36000061
C     7.04999971  11.10999966  57.05999756
C     6.72999954  10.70000076  55.75000000
C     7.69000006  10.53999996  54.78000259
C     9.04999924  10.90999985  55.01999664
C    13.15000057  11.56000042  55.83000183
C    13.81999969  11.18999958  54.64000320
C    15.21000004  11.19999981  54.56999969
C     5.32999992  10.34000015  55.28999710
H     4.95433855  11.03461933  54.53867722
H     9.72000027  10.13000011  53.13999939
H    10.98000050  11.87000084  57.69000244
H     8.73999977  11.44999981  58.37999725
H     6.34000015  11.02000046  57.88000107
H     7.51999950  10.06000042  53.81999969
H    15.71000004  10.86999989  53.67000198
H     4.67999983  10.40999985  56.17000198
H     5.38999987   9.28999996  54.97000122
S    13.69999981   8.89000034  50.68000031
C    10.98000050   8.38000011  51.14999771
C    12.30000019   8.13000011  51.45000076
C    12.69000053   7.44999981  52.64999771
C    11.67000008   6.94999981  53.43999863
C    10.29999924   7.16000032  53.18999863
C     9.23999977   6.80000019  54.08000183
C     7.90999985   6.98999977  53.80000305
C     7.59000015   7.69999981  52.61000061
C     8.56999969   8.02999973  51.70000076
C     9.94999981   7.86999989  51.98999786
C    14.11000061   7.55999994  52.93000031
C    14.75999928   8.46000004  52.04000092
C    16.10000038   8.82000065  52.05999756
C     6.14000034   8.10999966  52.45999908
H     5.64362335   7.67035198  51.59488678
H    10.77000046   8.92000008  50.22999573
H    11.92999935   6.40999985  54.34999847
H     9.59999943   6.28999996  54.97000122
H     7.20000029   6.71999979  54.56999969
H     8.32999992   8.47999954  50.73999786
H    16.53000069   9.38000011  51.24000168
H     5.56999969   7.77999973  53.34000015
H     6.15999985   9.19999981  52.37999725
S    17.46000099   6.74000025  55.14999771
C    20.13000107   7.40999985  54.62999725
C    18.79999924   7.48000050  54.25000000
C    18.36000061   8.23999977  53.11999893
C    19.26000023   8.76000023  52.21000290
C    20.62999916   8.60999966  52.52999878
C    21.60000038   9.10000038  51.59999847
C    22.93999863   9.13999939  51.90999985
C    23.35000038   8.61999989  53.15999985
C    22.46000099   8.06999969  54.05000305
C    21.05999947   8.09000015  53.80000305
C    16.90000153   8.30000019  53.08000183
C    16.28000069   7.44999981  54.02999878
C    14.93999958   7.07999992  53.95000076
C    24.76000023   8.92000008  53.62999725
H    25.04438400   8.52186203  54.60401535
H    20.48999977   6.78999996  55.44000244
H    18.88000107   9.30000019  51.35000229
H    21.12999916   9.59000015  50.75000000
H    23.65999985   9.67000008  51.30000305
H    22.84000015   7.69000006  55.00000000
H    14.47999954   6.48999977  54.73999786
H    24.80999947  10.01000023  53.68000031
H    25.51000214   8.59000015  52.90000153
