96

S    17.13999939  12.23000050  58.81999969
C    19.81999969  12.58999920  58.01000214
C    18.52000046  12.25000000  57.70000076
C    18.12000084  11.78999996  56.40999603
C    19.06999969  11.77000046  55.40999985
C    20.40999985  12.17000008  55.65999985
C    21.45000076  12.02000046  54.69999695
C    22.77000046  12.31999969  54.94999695
C    23.09000015  12.94999981  56.18000031
C    22.13000107  13.01000023  57.16999817
C    20.79000092  12.58999920  56.97999954
C    16.69000053  11.49000072  56.35000229
C    15.98999977  11.84999943  57.51999664
C    14.60999966  11.95000076  57.55000305
C    24.47999954  13.47000027  56.44000244
H    24.94947433  12.82980728  57.18689346
H    20.00000000  13.02000046  58.99000168
H    18.78000069  11.64000034  54.36999893
H    21.12999916  11.54999924  53.77999878
H    23.48999977  12.18999958  54.15000153
H    22.34999847  13.45999908  58.13999939
H    14.17000008  12.18000031  58.50999832
H    25.02000046  13.36999989  55.48999786
H    24.47000122  14.46000004  56.90999985
S    13.55999947  10.57000065  53.96999741
C    10.82999992  10.47000027  54.69999695
C    12.13000107  10.85000038  54.97000122
C    12.46000099  11.50000000  56.20999908
C    11.42000008  11.76000023  57.08000183
C    10.08999920  11.30000019  56.93000031
C     9.02000046  11.44999981  57.85999680
C     7.73000002  11.07999992  57.56000137
C     7.46999979  10.51000023  56.27999878
C     8.47000027  10.27999973  55.37000275
C     9.81000042  10.65999985  55.66999817
C    13.89999962  11.57999992  56.38999939
C    14.63000107  11.13000011  55.26000214
C    16.02000046  11.03999996  55.20999908
C     6.05999994  10.05000019  56.00999832
H     5.59025383  10.49839306  55.13456726
H    10.51000023  10.03000069  53.75999832
H    11.65999985  12.18000031  58.06000137
H     9.34000015  11.76000023  58.85000229
H     6.86999989  11.02000046  58.22000122
H     8.23999977   9.77000046  54.43999863
H    16.52000046  10.72000027  54.29999924
H     5.50000000  10.27999973  56.93000031
H     5.98000002   8.96000004  55.96000290
S    17.47999954  12.84000015  52.44999695
C    20.17000008  13.22999954  51.56000137
C    18.86000061  12.86000061  51.33999634
C    18.50000000  12.27000046  50.07999802
C    19.42000008  12.09000015  49.06999969
C    20.76999855  12.48000050  49.25000000
C    21.80000114  12.43999958  48.26000214
C    23.11000061  12.84000015  48.44999695
C    23.39999962  13.50999928  49.65999985
C    22.43000031  13.60000038  50.63000107
C    21.09999847  13.10999966  50.50000000
C    17.05999947  12.05999947  49.95999908
C    16.36000061  12.46000099  51.12999725
C    14.96999931  12.53000069  51.12999725
C    24.82999992  13.89999962  49.93999863
H    25.31358910  13.24573517  50.66538239
H    20.46999931  13.64999962  52.51999664
H    19.09000015  11.50000000  48.22000122
H    21.47000122  12.13000107  47.28000259
H    23.81999969  12.89999962  47.63000107
H    22.57999802  14.00000000  51.63000107
H    14.40999985  13.04999924  51.90000153
H    25.38999939  13.81000042  49.00000000
H    24.80999947  14.91000080  50.37000275
S    13.78999901  11.28000069  47.56999969
C    11.05999947  11.36999989  48.23999786
C    12.36999989  11.61000061  48.56999969
C    12.76999950  12.06999969  49.86999893
C    11.82000065  12.25000000  50.86000061
C    10.48999977  11.85999966  50.56999969
C     9.51000023  11.77000046  51.59999847
C     8.18000031  11.59999943  51.29000092
C     7.73999977  11.32999992  49.97000122
C     8.71000004  11.23000050  48.99000168
C    10.06999969  11.59999943  49.22000122
C    14.22000027  12.15999985  50.00000000
C    14.93000031  11.72999954  48.85000229
C    16.31999969  11.67000008  48.83999634
C     6.32999992  10.85999966  49.69999695
H     5.89697504  11.42790127  48.87654114
H    10.70000076  10.98000050  47.29000092
H    11.98999977  12.51000023  51.90000153
H     9.89999962  11.90000057  52.60000229
H     7.42999983  11.57999992  52.08000183
H     8.47000027  10.80999947  48.02000046
H    16.82999992  11.35000038  47.94000244
H     5.73000002  11.03999996  50.59999847
H     6.23000050   9.77999973  49.54999924
