96

S    16.61999893  12.15999985  58.40000153
C    19.27000046  11.85999966  57.84999847
C    17.98999977  11.51999950  57.47000122
C    17.67000008  11.00000000  56.18000031
C    18.72999954  10.90000057  55.30000305
C    20.06999969  11.13999939  55.70000076
C    21.12999916  10.90000057  54.78000259
C    22.39999962  11.35000038  55.10000229
C    22.70000076  11.89000034  56.38000107
C    21.71999931  12.00000000  57.34000397
C    20.38999939  11.63000011  57.01000214
C    16.22999954  11.05000019  56.00000000
C    15.54999924  11.65999985  57.08000183
C    14.19000053  11.97999954  57.14000320
C    24.09000015  12.43000031  56.62000275
H    24.62231636  11.84800053  57.37234116
H    19.40999985  12.48000050  58.73000336
H    18.60000038  10.59000015  54.26000214
H    20.93000031  10.52000046  53.77999878
H    23.13999939  11.36000061  54.31000137
H    21.80999947  12.44999981  58.33000183
H    13.71000099  12.20000076  58.09000015
H    24.54000092  12.30999947  55.63000107
H    23.92999840  13.48999977  56.84999847
S    12.96000004  10.50000000  53.64999771
C    10.26999950  10.47000027  54.54999924
C    11.59999943  10.72000027  54.78000259
C    12.02999973  11.36000061  55.97999954
C    11.10000038  11.61000061  56.97000122
C     9.73999977  11.25000000  56.81000137
C     8.80000019  11.49000072  57.84999847
C     7.46999979  11.18999958  57.64999771
C     7.02000046  10.80000019  56.36000061
C     7.90000010  10.53999996  55.34000015
C     9.28999996  10.73999977  55.54000092
C    13.48000050  11.54999924  56.00999832
C    14.14000034  11.07999992  54.85000229
C    15.51000023  10.84000015  54.80999756
C     5.59000015  10.31999969  56.24000168
H     5.20070601  10.58188915  55.25614929
H     9.98999977  10.06999969  53.57999802
H    11.56000042  11.97999954  57.88999939
H     9.22000027  11.82999992  58.79000092
H     6.76000023  11.40999985  58.43999863
H     7.53999996  10.11999989  54.40000153
H    15.98000050  10.52000046  53.88999939
H     4.90999985  10.60999966  57.04999924
H     5.64000034   9.22999954  56.33999634
S    17.07999992  12.43000031  52.50000000
C    19.77000046  12.32999992  51.81000137
C    18.46999931  12.02000046  51.49000168
C    18.09999847  11.36000061  50.27000046
C    19.09000015  11.02000046  49.36999893
C    20.43999863  11.36999989  49.59000015
C    21.40999985  11.31999969  48.54999924
C    22.69000053  11.77000046  48.76999664
C    23.02999878  12.42000008  49.98000336
C    22.10000038  12.48000050  50.98999786
C    20.76000023  12.02000046  50.84000015
C    16.65999985  11.51000023  50.08999634
C    15.95000076  12.05000019  51.18000031
C    14.56999969  12.22000027  51.31999969
C    24.47999954  12.65999985  50.35999680
H    24.88593864  12.11874866  51.21460724
H    19.98999977  12.79000092  52.77000046
H    18.89999962  10.62999916  48.36999893
H    21.18999863  11.00000000  47.52999878
H    23.40999985  11.57999992  47.97999954
H    22.32000160  12.94000053  51.95000076
H    14.11999893  12.48000050  52.27000427
H    25.03999901  12.28999996  49.50000000
H    24.71999931  13.71999931  50.44000244
S    13.47000027  10.80000019  47.70000076
C    10.80999947  10.77999973  48.40000153
C    12.10000038  11.07999992  48.77999878
C    12.44999981  11.56000042  50.07999802
C    11.44000053  11.68000031  51.02000427
C    10.07999992  11.47999954  50.68000031
C     8.97999954  11.84999943  51.50000000
C     7.72000027  11.44999981  51.12999725
C     7.46999979  10.84000015  49.86999893
C     8.47999954  10.64000034  48.95000076
C     9.80000019  10.92000008  49.38999939
C    13.88000011  11.79999924  50.18000031
C    14.53999996  11.35000038  49.01000214
C    15.92000008  11.16000080  48.95999908
C     6.02999973  10.48999977  49.56999969
H     5.56953716  11.10631275  48.79784012
H    10.60999966  10.31000042  47.43999863
H    11.72000027  12.09000015  51.98999786
H     9.10000038  12.25999928  52.50000000
H     6.90999985  11.50000000  51.86000061
H     8.27999973  10.15999985  47.98999786
H    16.48999977  10.70000076  48.15999985
H     5.38999987  10.36000061  50.45000076
H     6.05000019   9.46000004  49.20999908
