96

S    16.73999977  12.81000042  58.43999863
C    19.45000076  12.86999893  57.83000183
C    18.19000053  12.43999958  57.49000168
C    17.90999985  11.77000046  56.25999832
C    18.92000008  11.47999954  55.35999680
C    20.20999908  11.94000053  55.72000122
C    21.34000015  11.77000046  54.86000061
C    22.60000038  12.27000046  55.07999802
C    22.88999939  12.92000008  56.31000137
C    21.84000015  13.12000084  57.18000031
C    20.52999878  12.61999989  56.95000076
C    16.47999954  11.65999985  56.03000259
C    15.73999977  12.15999985  57.12999725
C    14.34999943  12.20000076  57.16999817
C    24.27000046  13.47000027  56.59000015
H    24.81780243  12.76568317  57.21606064
H    19.57999992  13.45999908  58.73000336
H    18.70000076  10.80999947  54.52999878
H    21.04000092  11.47999954  53.86000061
H    23.29999924  12.31999969  54.23999786
H    21.97999954  13.67000008  58.11000061
H    13.89999962  12.53000069  58.09999847
H    24.77999878  13.64999962  55.63000107
H    24.13999939  14.47000027  57.04000092
S    13.25000000  10.64000034  53.73000336
C    10.59000015  10.40999985  54.43999863
C    11.82999992  10.90999985  54.77000427
C    12.13000107  11.59000015  55.98999786
C    11.11999989  11.76000023  56.90999985
C     9.80000019  11.36000061  56.58000183
C     8.76999950  11.49000072  57.55000305
C     7.53999996  10.93000031  57.31999969
C     7.23999977  10.26999950  56.09000397
C     8.21000004  10.19000053  55.12000275
C     9.53999996  10.64000034  55.35999680
C    13.57999992  11.72999954  56.10000229
C    14.32999992  11.23999977  55.00000000
C    15.72000027  11.23999977  54.93000031
C     5.88000011   9.64999962  55.84000015
H     5.39426804  10.22859287  55.05425644
H    10.44000053   9.85999966  53.50999832
H    11.46000004  12.17000008  57.85999680
H     9.09000015  11.95000076  58.48999786
H     6.86999989  10.80000019  58.15999985
H     8.05000019   9.61999989  54.20999908
H    16.25000000  10.80999947  54.08000183
H     5.27999973   9.59999943  56.76000214
H     6.01000023   8.56999969  55.65999985
S    16.98999977  12.96000004  52.55000305
C    19.70000076  13.15000057  51.77999878
C    18.40999985  12.75000000  51.51000214
C    18.05999947  12.43000031  50.15999603
C    19.02000046  12.35000038  49.18000031
C    20.30999947  12.89999962  49.38000107
C    21.37000084  12.82999992  48.41999817
C    22.65000153  13.19000053  48.75000000
C    23.01000214  13.34000015  50.11000061
C    22.01999855  13.45999908  51.06999969
C    20.65999985  13.20000076  50.73999786
C    16.61000061  12.36999989  49.99000168
C    15.90000057  12.63000011  51.18999863
C    14.51000023  12.67000008  51.25999832
C    24.44000053  13.71000099  50.44000244
H    24.86621475  13.06357384  51.20718765
H    19.98999977  13.47000027  52.77999878
H    18.75000000  11.94000053  48.20999908
H    21.12999916  12.23999977  47.54000092
H    23.32999992  13.30999947  47.90000153
H    22.20999908  13.66000080  52.11999893
H    13.94999981  12.76999950  52.18000031
H    25.03999901  13.66000080  49.52000046
H    24.48999786  14.73999977  50.80999756
S    13.38000107  11.61999893  47.57999802
C    10.72000027  11.23999977  48.31999969
C    11.97999954  11.64999962  48.67000198
C    12.31999969  12.18000031  49.95999908
C    11.31000042  12.27000046  50.89000320
C     9.98999977  11.84999943  50.58000183
C     9.03999996  11.89000034  51.63999939
C     7.73000002  11.56000042  51.38000107
C     7.34000015  11.14999962  50.07999802
C     8.30999947  10.98999977  49.10999680
C     9.67000008  11.38000011  49.26000214
C    13.76000023  12.35000038  50.12000275
C    14.47000027  12.02000046  48.93000031
C    15.85000038  12.10999966  48.83999634
C     5.89999962  10.80999947  49.77000427
H     5.57186794  11.46626472  48.96393585
H    10.31999969  10.80999947  47.41000366
H    11.64000034  12.61999989  51.86999893
H     9.36999989  12.10000038  52.65999603
H     6.97000027  11.64999962  52.15000153
H     7.94000053  10.72000027  48.13000107
H    16.25000000  11.80999947  47.88000107
H     5.35000038  10.81999969  50.72999954
H     5.77000046   9.78999996  49.40000153
