96

S    16.97000122  12.28000069  58.68999863
C    19.70000076  12.32999992  58.09000015
C    18.42000008  11.97999954  57.70999908
C    18.04999924  11.59999943  56.38000107
C    19.04000092  11.31000042  55.45999908
C    20.32999992  11.77999973  55.79000092
C    21.32999802  11.69999981  54.78000259
C    22.65000153  12.00000000  55.00999832
C    23.06999969  12.38000011  56.31000137
C    22.09000015  12.51999950  57.28000259
C    20.71000099  12.25000000  57.09999847
C    16.61000061  11.57999992  56.16000366
C    15.88999939  11.97000027  57.31999969
C    14.51000023  12.06999969  57.43000031
C    24.50000000  12.76000023  56.59000015
H    24.96266747  12.30445099  57.46550751
H    19.88000107  12.74000072  59.08000183
H    18.86999893  11.03999996  54.41999817
H    21.11000061  11.44000053  53.75000000
H    23.31000137  12.15000057  54.15000153
H    22.40999985  12.79000092  58.27999878
H    14.07999992  12.41000080  58.36999893
H    25.09000015  12.51999950  55.70000076
H    24.50000000  13.86000061  56.69000244
S    13.40000057  10.97000027  53.76999664
C    10.71000004  10.80000019  54.45000076
C    11.98999977  11.14999962  54.82999802
C    12.34000015  11.61999893  56.12999725
C    11.31000042  11.84999943  57.02000046
C     9.96999931  11.52999973  56.69000244
C     8.85000038  11.64999962  57.56000137
C     7.55999994  11.31999969  57.23999786
C     7.28999996  10.88999939  55.91999817
C     8.32999992  10.65000057  55.05000305
C     9.67000008  10.93999958  55.40999985
C    13.78000069  11.78999996  56.26999664
C    14.47999954  11.38000011  55.11000061
C    15.85999966  11.21999931  55.02999878
C     5.84000015  10.57000065  55.59000015
H     5.44884586  11.20295906  54.79346848
H    10.42000008  10.50000000  53.43999863
H    11.49000072  12.10000038  58.06000137
H     9.22999954  11.87999916  58.55999756
H     6.72999954  11.36999989  57.94000244
H     8.14999962  10.19999981  54.06999969
H    16.36999893  10.93999958  54.10999680
H     5.12000036  10.59000015  56.40999603
H     5.86000013   9.51000023  55.34000015
S    13.80000019   9.23999977  50.56000137
C    11.18999958   8.43999958  51.25999832
C    12.55000019   8.38999939  51.47999573
C    13.01000023   7.72000027  52.65999603
C    12.11999989   7.04999971  53.47999954
C    10.72000027   7.04999971  53.25000000
C     9.77000046   6.48999977  54.15999985
C     8.43000031   6.74000025  53.95999908
C     7.96000004   7.53999996  52.88999939
C     8.85999966   8.00000000  51.95999908
C    10.26000023   7.76999998  52.09000015
C    14.44000053   7.96999979  52.77999878
C    15.01999950   8.75000000  51.75000000
C    16.36000061   9.11999989  51.79000092
C     6.50000000   7.92000008  52.75000000
H     6.07910728   7.49910688  51.83687592
H    10.76000023   9.15999985  50.56999969
H    12.51000023   6.52999973  54.34000015
H    10.10000038   6.12999964  55.12000275
H     7.79999971   6.50000000  54.80999756
H     8.55000019   8.67999935  51.17000198
H    16.87999916   9.44000053  50.89000320
H     5.98999977   7.62000036  53.67000198
H     6.51999998   9.01000023  52.58999634
S    17.73999977   7.26999998  55.07999802
C    20.38000107   7.69000006  54.41999817
C    19.05999947   7.92999983  54.09999847
C    18.57999992   8.64999962  52.97000122
C    19.62000084   9.15000057  52.19999695
C    20.98999977   9.11999989  52.51999664
C    22.01000023   9.73999977  51.73999786
C    23.32999992   9.65999985  52.11999893
C    23.68999863   8.97999954  53.29999924
C    22.75000000   8.32999992  54.08000183
C    21.38999939   8.36999989  53.68999863
C    17.13000107   8.67999935  52.87000275
C    16.55999947   7.92999983  53.93000031
C    15.21000004   7.55999994  53.87000275
C    25.15000153   8.76999950  53.66000366
H    25.53539085   9.50509548  54.36655045
H    20.61000061   7.11999989  55.31999969
H    19.36000061   9.61999989  51.25000000
H    21.64999962  10.19999981  50.83000183
H    24.04000092  10.22999954  51.52999878
H    23.02999878   7.73000002  54.93999863
H    14.80999947   6.80999994  54.54999924
H    25.73999786   8.69000053  52.72999573
H    25.27000046   7.78999996  54.13000107
