96

S    16.86000061  12.48000050  58.34999847
C    19.54000092  12.38000011  57.70000076
C    18.25000000  12.01000023  57.36000061
C    17.95999908  11.38000011  56.11000061
C    18.95000076  11.33999920  55.14999771
C    20.28000069  11.71000004  55.47000122
C    21.30000114  11.68000031  54.47999954
C    22.56000137  12.05999947  54.89999771
C    22.90999985  12.31999969  56.24000168
C    21.94999886  12.35000038  57.22999954
C    20.61000061  12.15000057  56.79999924
C    16.52000046  11.18000031  56.04000092
C    15.80000019  11.78999996  57.11000061
C    14.42000008  11.87000084  57.12999725
C    24.34000015  12.64000034  56.62000275
H    24.69575500  12.01387310  57.43823624
H    19.68000031  12.76999950  58.69999695
H    18.65999985  11.10999966  54.12000275
H    21.14000130  11.54000092  53.40999985
H    23.34000015  12.28999996  54.16999817
H    22.06999969  12.60000038  58.27999878
H    13.92000008  12.41000080  57.93000031
H    25.07999802  12.69000053  55.81999969
H    24.46000099  13.67000008  56.98999786
S    13.35000038  10.47000027  53.53000259
C    10.60999966  10.70000076  54.13999939
C    11.92000008  11.00999928  54.43000031
C    12.27000046  11.56000042  55.70000076
C    11.26000023  11.97000027  56.56000137
C     9.92999935  11.51000023  56.38999939
C     8.93999958  11.69999981  57.38999939
C     7.62000036  11.47999954  57.09000015
C     7.26000023  10.85000038  55.86999893
C     8.26000023  10.50000000  54.99000168
C     9.63000011  10.85000038  55.14999771
C    13.69999981  11.50000000  55.98999786
C    14.39000034  10.90000057  54.91000366
C    15.77000046  10.78999996  54.92000198
C     5.84000015  10.36999893  55.63000107
H     5.30497742  11.00489330  54.92377090
H    10.32999992  10.19000053  53.22000122
H    11.46000004  12.27000046  57.57999802
H     9.22000027  12.20999908  58.30999756
H     6.88000011  11.85999966  57.78999710
H     7.96000004   9.94000053  54.10999680
H    16.25000000  10.52000046  53.99000168
H     5.25000000  10.26999950  56.55000305
H     6.00000000   9.38000011  55.19000244
S    16.97000122  12.60000038  52.30999756
C    19.67000008  12.75000000  51.63000107
C    18.38999939  12.43000031  51.25000000
C    18.02999878  12.01000023  49.93000031
C    19.06999969  11.90000057  49.02000046
C    20.38000107  12.28999996  49.36999893
C    21.37000084  12.39999962  48.34999847
C    22.60000038  12.97000027  48.54999924
C    22.98999977  13.30999947  49.87999725
C    22.06999969  13.19000053  50.89000320
C    20.72999954  12.72999954  50.68999863
C    16.59000015  12.09000015  49.72000122
C    15.90000057  12.48999977  50.90000153
C    14.52000046  12.43000031  51.02000427
C    24.40000153  13.71000099  50.25000000
H    24.77094269  12.91104984  50.89201355
H    19.80999947  13.22999954  52.60000229
H    18.89999962  11.79999924  47.95000076
H    21.11999893  12.06999969  47.34000397
H    23.31999969  13.03999996  47.74000168
H    22.40999985  13.60000038  51.83000183
H    14.04000092  12.48999977  52.00000000
H    25.03000069  13.76999950  49.36000061
H    24.36000061  14.68000031  50.77000046
S    13.40000057  11.19999981  47.43000031
C    10.70000076  11.00999928  48.09999847
C    11.97999954  11.36000061  48.47999954
C    12.35000038  11.82000065  49.78000259
C    11.33999920  11.85999966  50.72000122
C     9.98999977  11.59999943  50.37000275
C     9.00000000  11.76000023  51.38000107
C     7.69000006  11.47999954  51.04999924
C     7.36000013  11.03999996  49.73999786
C     8.28999996  10.86999989  48.75000000
C     9.65999985  11.14999962  49.05000305
C    13.76999950  12.13999939  49.87999725
C    14.48999977  11.77999973  48.70999908
C    15.86999989  11.67000008  48.59000397
C     5.92999983  10.59999943  49.48999786
H     5.42389011  11.16313648  48.70588684
H    10.52000046  10.53999996  47.12999725
H    11.54000092  12.46000099  51.59999847
H     9.35000038  12.03999996  52.36999893
H     6.97000027  11.59999943  51.84999847
H     8.06999969  10.50000000  47.76000214
H    16.43000031  11.31999969  47.72999573
H     5.36000013  10.71000004  50.41999817
H     5.84999990   9.56999969  49.12000275
