96

S    16.45000076  12.42000008  58.48999786
C    19.15999985  12.57999992  57.90000153
C    17.89999962  12.18000031  57.49000168
C    17.69000053  11.67000008  56.17000198
C    18.71999931  11.54000092  55.26000214
C    20.00999832  11.97000027  55.63000107
C    21.17000198  11.82999992  54.80999756
C    22.39999962  12.28000069  55.20000076
C    22.60999870  12.71999931  56.53999710
C    21.55999947  12.64999962  57.42000198
C    20.22999954  12.36999989  57.00000000
C    16.25000000  11.54000092  55.98999786
C    15.47000027  11.84000015  57.12999725
C    14.07999992  11.85999966  57.15999985
C    23.90999985  13.42000008  56.88999939
H    24.67123032  12.73702717  57.26705933
H    19.43000031  12.88000011  58.90999603
H    18.52000046  11.32999992  54.20999908
H    20.94000053  11.52999973  53.79000092
H    23.22000122  12.30000019  54.48999786
H    21.75000000  12.84999943  58.47000122
H    13.50999928  12.28999996  57.97999954
H    24.37999916  13.92000008  56.03000259
H    23.64999962  14.19000053  57.63000107
S    13.10999966  10.95999908  53.43999863
C    10.43000031  10.73999977  53.93000031
C    11.67000008  10.93999958  54.47999954
C    11.96000004  11.25000000  55.84999847
C    10.85000038  11.33999920  56.66999817
C     9.55000019  11.09000015  56.17000198
C     8.40999985  11.21999931  57.01000214
C     7.11000013  11.17000008  56.56999969
C     6.88000011  10.69000053  55.25000000
C     7.94000053  10.72999954  54.36999893
C     9.30000019  10.78999996  54.79000092
C    13.38000107  11.50000000  56.00000000
C    14.15999985  11.21999931  54.85000229
C    15.54999924  11.14999962  54.84000397
C     5.49000025  10.26000023  54.84000397
H     5.07794952  10.79992867  53.98748398
H    10.29000092  10.67999935  52.84999847
H    10.98999977  11.52999973  57.72999573
H     8.60000038  11.43000031  58.06000137
H     6.32000017  11.16000080  57.31999969
H     7.78999996  10.53999996  53.31999969
H    16.10000038  10.95999908  53.92000198
H     4.76999998  10.25000000  55.66999817
H     5.58000040   9.19000053  54.64000320
S    17.12000084  12.84999943  52.42000198
C    19.80999947  13.15000057  51.79999924
C    18.60000038  12.56999969  51.49000168
C    18.32999992  11.97000027  50.21999741
C    19.29000092  11.97000027  49.22000122
C    20.52999878  12.58999920  49.52000046
C    21.63999939  12.38000011  48.66000366
C    22.93000031  12.65999985  49.06000137
C    23.19999886  13.31999969  50.27999878
C    22.17000008  13.43999958  51.18999863
C    20.84000015  13.09999943  50.83000183
C    16.90000153  11.84999943  49.98000336
C    16.11999893  12.43000031  51.00999832
C    14.73999977  12.56999969  50.96000290
C    24.61000061  13.68999958  50.70000076
H    24.95181465  13.01349068  51.48332596
H    19.98999977  13.61999989  52.77000046
H    19.18000031  11.26000023  48.40999985
H    21.42000008  11.82000065  47.76000214
H    23.75000000  12.48000050  48.36999893
H    22.29999924  13.73000050  52.22999954
H    14.32000065  13.00000000  51.86999893
H    25.29000092  13.52000046  49.86000061
H    24.70000076  14.75999928  50.93999863
S    13.71999931  11.23999977  47.43999863
C    10.97000027  11.14999962  48.06000137
C    12.25999928  11.44000053  48.43000031
C    12.56000042  11.89000034  49.75999832
C    11.52999973  12.01000023  50.68000031
C    10.18000031  11.87999916  50.26000214
C     9.09000015  12.11999989  51.13999939
C     7.82000017  11.69000053  50.86999893
C     7.55000019  11.21000099  49.55999756
C     8.55000019  10.95999908  48.64999771
C     9.88000011  11.35000038  48.95000076
C    14.00000000  12.03999996  49.89999771
C    14.78999996  11.56999969  48.81999969
C    16.18000031  11.56000042  48.81000137
C     6.15000010  10.80000019  49.15000153
H     5.67237377  11.53426075  48.50128174
H    10.76000023  10.97000027  47.01000214
H    11.73999977  12.35000038  51.69000244
H     9.39000034  12.48999977  52.11999893
H     7.07000017  11.82000065  51.63999939
H     8.36999989  10.36000061  47.76000214
H    16.70999908  11.39999962  47.87000275
H     5.46999979  10.67999935  50.00999832
H     6.17000008   9.77999973  48.75999832
