96

S    16.67000008  12.69000053  58.40999985
C    19.37999916  12.92000008  57.70000076
C    18.12999916  12.39999962  57.45999908
C    17.75000000  11.77999973  56.23000336
C    18.79999924  11.44999981  55.38999939
C    20.15000153  11.75000000  55.66999817
C    21.25000000  11.39000034  54.82999802
C    22.53999901  11.72000027  55.15999603
C    22.82999992  12.58999920  56.25000000
C    21.77000046  12.97999954  57.02999878
C    20.45000076  12.48000050  56.86999893
C    16.31000137  11.75000000  56.00999832
C    15.54999924  12.20999908  57.11999893
C    14.17000008  12.30999947  57.22000122
C    24.23999977  13.09999943  56.44000244
H    24.69695282  12.50738716  57.23253250
H    19.52999878  13.45000076  58.63999939
H    18.67000008  11.00000000  54.40999985
H    21.00000000  11.07999992  53.81999969
H    23.31000137  11.50000000  54.43000031
H    22.01000023  13.71999931  57.78999710
H    13.61999989  12.79000092  58.02000046
H    24.80999947  13.03999996  55.50000000
H    24.34000015  14.15999985  56.70000076
S    13.10999966  10.46000004  53.82999802
C    10.39000034  10.52000046  54.43999863
C    11.67000008  10.88000107  54.78000259
C    12.02999973  11.57999992  55.97999954
C    11.00000000  11.84999943  56.86999893
C     9.68000031  11.43000031  56.59999847
C     8.59000015  11.68000031  57.48000336
C     7.30000019  11.23999977  57.25000000
C     6.94000006  10.65000057  56.00999832
C     7.97999954  10.43000031  55.13999939
C     9.34000015  10.80000019  55.34999847
C    13.45999908  11.77999973  56.13999939
C    14.15999985  11.14999962  55.07999802
C    15.54999924  11.11999989  55.00999832
C     5.50000000  10.34000015  55.65999985
H     5.17222452  10.91004372  54.79067993
H    10.19000053   9.85000038  53.61000061
H    11.21999931  12.18999958  57.88000107
H     8.71999931  12.39999962  58.27999878
H     6.56000042  11.59000015  57.97000122
H     7.72000027  10.01000023  54.16999817
H    16.09000015  10.55999947  54.26000214
H     4.98000002  10.51000023  56.60999680
H     5.35000038   9.27999973  55.40999985
S    17.25000000  12.61999989  52.63999939
C    19.89999962  12.86999893  51.84999847
C    18.63999939  12.41000080  51.55000305
C    18.30000114  11.94000053  50.24000168
C    19.23999977  11.95000076  49.22999954
C    20.56999969  12.30999947  49.54000092
C    21.68000031  12.11999989  48.67000198
C    22.96999931  12.46000099  49.00000000
C    23.28000069  13.09000015  50.22999573
C    22.22999954  13.26000023  51.10000229
C    20.92000008  12.76000023  50.86000061
C    16.84000015  11.84999943  50.18000031
C    16.11999893  12.10999966  51.37000275
C    14.73999977  12.13999939  51.49000168
C    24.67000008  13.53999996  50.63000107
H    25.07572365  12.82820415  51.34891510
H    20.07999802  13.28999996  52.83000183
H    19.04000092  11.46999931  48.27999878
H    21.63999939  11.82000065  47.62000275
H    23.68999863  12.00000000  48.31999969
H    22.34999847  13.63000011  52.11999893
H    14.19999981  12.46000099  52.36999893
H    25.25000000  13.61999989  49.71000290
H    24.59000015  14.55999947  51.04000092
S    13.47000027  11.52999973  47.77000046
C    10.77999973  11.69000053  48.40000153
C    12.07999992  11.79999924  48.82999802
C    12.53000069  12.06999969  50.17000198
C    11.52999973  12.25999928  51.10000229
C    10.15999985  12.18999958  50.75000000
C     9.07999992  12.06999969  51.65999985
C     7.75000000  11.92000008  51.35000229
C     7.40000010  11.65999985  50.00000000
C     8.42000008  11.59000015  49.08000183
C     9.78999996  11.84999943  49.40000153
C    13.97999954  12.02999973  50.31999969
C    14.63000107  11.76000023  49.09000015
C    16.01000023  11.61000061  49.08000183
C     5.98000002  11.32999992  49.62999725
H     5.61879635  11.93908787  48.80135727
H    10.39999962  11.18999958  47.50999832
H    11.59999943  12.42000008  52.18000031
H     9.35999966  12.22000027  52.70000076
H     7.04999971  11.84000015  52.18000031
H     8.22000027  11.28000069  48.04999924
H    16.45000076  11.36000061  48.11999893
H     5.35000038  11.52999973  50.51000214
H     5.84999990  10.29000092  49.33000183
