96

S    17.06999969  12.07999992  58.54000092
C    19.72999954  12.35999966  57.75000000
C    18.44000053  12.00000000  57.42000198
C    18.01000023  11.54999924  56.12999725
C    19.04000092  11.38000011  55.22999573
C    20.38000107  11.73999977  55.47999954
C    21.45000076  11.33999920  54.62999725
C    22.77000046  11.59000015  54.94999695
C    23.13999939  12.20000076  56.17000198
C    22.13000107  12.50000000  57.05999756
C    20.76000023  12.25999928  56.77000046
C    16.56999969  11.36999989  56.05999756
C    15.90000057  11.69000053  57.27000427
C    14.52000046  11.79999924  57.34000397
C    24.54999924  12.67000008  56.45999908
H    25.02108192  12.16322994  57.30223846
H    19.93000031  12.56999969  58.79000092
H    18.88000107  10.84000015  54.29999924
H    21.24000168  10.95000076  53.63999939
H    23.54000092  11.33999920  54.22000122
H    22.27000046  12.92000008  58.04999924
H    13.96000004  11.89000034  58.27000046
H    25.22999954  12.64000034  55.59999847
H    24.51000023  13.76000023  56.58000183
S    13.32999992  10.81999969  53.62999725
C    10.62999916  10.72999954  54.45000076
C    11.95000076  10.97000027  54.73999786
C    12.35000038  11.33999920  56.05999756
C    11.39999962  11.50000000  57.04999924
C    10.01999950  11.31000042  56.76000214
C     8.98999977  11.42000008  57.72999573
C     7.68000031  11.10999966  57.44999695
C     7.27999973  10.67999935  56.16000366
C     8.25000000  10.62000084  55.19000244
C     9.61999989  10.90999985  55.43000031
C    13.78999901  11.56999969  56.17000198
C    14.42999935  11.14999962  54.98000336
C    15.80999947  10.98000050  54.94999695
C     5.88000011  10.17000008  55.90000153
H     5.37141752  10.72096443  55.10887527
H    10.39999962  10.39999962  53.43999863
H    11.75000000  11.65999985  58.06000137
H     9.26999950  11.80999947  58.70999908
H     6.88000011  11.31000042  58.15000153
H     8.01000023  10.19999981  54.22000122
H    16.29999924  10.67999935  54.02000046
H     5.35000038  10.21000004  56.86000061
H     5.77000046   9.13999939  55.52999878
S    13.38000107   8.69999981  50.58000183
C    10.70000076   8.23999977  51.37000275
C    12.05000019   8.15999985  51.62000275
C    12.50000000   7.55000019  52.84000015
C    11.64000034   7.07000017  53.81000137
C    10.25000000   7.17000008  53.56999969
C     9.30000019   6.63000011  54.48999786
C     7.96000004   6.71999979  54.20999908
C     7.46999979   7.25000000  52.98999786
C     8.38999939   7.72000027  52.08000183
C     9.78999996   7.69999981  52.30999756
C    13.94999981   7.63000011  52.93000031
C    14.56999969   8.30999947  51.84000015
C    15.90999985   8.64999962  51.79999924
C     6.01000023   7.63000011  52.95999908
H     5.51970768   7.04022789  52.18547821
H    10.31000042   8.73999977  50.50000000
H    12.10999966   6.71999979  54.72000122
H     9.67000008   6.28999996  55.45000076
H     7.28999996   6.51000023  55.05000305
H     8.07999992   8.32999992  51.23000336
H    16.25000000   9.42000008  51.11000061
H     5.56999969   7.39000034  53.94000244
H     5.84000015   8.69000053  52.72999573
S    17.30999947   7.37999964  55.31999969
C    19.95000076   7.97999954  54.65999985
C    18.61999893   8.05000019  54.33000183
C    18.17000008   8.47000027  53.04000092
C    19.06999969   8.90999985  52.08000183
C    20.45000076   8.76999950  52.35000229
C    21.42999840   9.06000042  51.37000275
C    22.78000069   8.89999962  51.58000183
C    23.23999786   8.52000046  52.87000275
C    22.29999924   8.34999943  53.86000061
C    20.88999939   8.36999989  53.67000198
C    16.75000000   8.19999981  52.83000183
C    16.18000031   7.59000015  53.96999741
C    14.80999947   7.34000015  53.99000168
C    24.71999931   8.34999943  53.11000061
H    24.98189354   8.49864292  54.15757751
H    20.22000122   7.55000019  55.61999893
H    18.67000008   9.00000000  51.06999969
H    21.15999985   9.26000023  50.33000183
H    23.48999977   9.11000061  50.79000092
H    22.60999870   8.10000038  54.86999893
H    14.44000053   6.91999960  54.92000198
H    25.17000008   9.17000008  52.55000305
H    24.96999931   7.36000013  52.70000076
