96

S    16.51000023  11.84000015  58.29000092
C    19.11999893  12.18999958  57.55000305
C    17.90999985  11.61000061  57.22000122
C    17.61999893  11.02000046  55.94999695
C    18.65999985  10.86999989  55.05000305
C    19.96999931  11.23000050  55.44000244
C    21.11999893  11.00000000  54.62999725
C    22.40999985  11.26999950  55.01999664
C    22.60999870  11.90999985  56.26999664
C    21.54999924  12.13999939  57.11000061
C    20.20999908  11.90000057  56.69000244
C    16.18000031  10.88999939  55.80999756
C    15.46000004  11.30000019  56.97000122
C    14.07999992  11.31000042  57.11000061
C    24.01000023  12.38000011  56.62000275
H    24.45877647  11.71039677  57.35371399
H    19.18000031  12.76999950  58.46000290
H    18.45999908  10.52000046  54.03999710
H    20.88000107  10.59000015  53.64999771
H    23.26999855  11.19999981  54.36000061
H    21.63999939  12.64999962  58.06999969
H    13.63000011  11.44000053  58.09000015
H    24.61000061  12.38999939  55.70999908
H    23.84000015  13.40999985  56.95999908
S    12.90999985   9.94000053  53.62999725
C    10.14999962   9.92999935  54.34999847
C    11.46999931  10.22999954  54.61999893
C    11.90000057  10.84000015  55.84000015
C    10.95999908  11.03999996  56.84000015
C     9.63000011  10.60999966  56.63000107
C     8.60999966  10.88999939  57.57999802
C     7.30999994  10.43000031  57.51999664
C     6.90999985   9.90999985  56.25999832
C     7.81000042   9.70000076  55.25000000
C     9.19000053  10.03000069  55.38999939
C    13.32999992  11.07999992  55.94999695
C    14.04000092  10.59999943  54.81999969
C    15.42000008  10.39000034  54.75000000
C     5.47999954   9.55999947  55.93999863
H     5.00423098  10.21329403  55.20859528
H     9.98000050   9.42000008  53.40000153
H    11.30000019  11.39999962  57.81000137
H     8.76000023  11.44000053  58.50000000
H     6.65999985  10.57999992  58.37999725
H     7.50999975   9.38000011  54.25000000
H    15.82999992  10.13000011  53.77999878
H     4.75000000   9.38000011  56.73999786
H     5.58000040   8.56999969  55.47999954
S    13.42000008   7.95000029  50.86000061
C    10.77000046   7.50000000  51.56999969
C    12.10000038   7.31999969  51.86999893
C    12.51000023   6.80000019  53.13000107
C    11.52999973   6.32000017  53.97999573
C    10.15999985   6.38999987  53.62999725
C     9.11000061   5.92999983  54.47000122
C     7.78999996   6.05000019  54.13999939
C     7.42000008   6.93000031  53.08000183
C     8.36999989   7.44000006  52.22000122
C     9.72999954   7.11000013  52.44999695
C    13.94999981   6.88000011  53.31999969
C    14.52000046   7.42000008  52.15000153
C    15.88000107   7.73000002  52.06999969
C     5.97000027   7.28999996  52.90999985
H     5.52255964   6.65790176  52.14295959
H    10.51000023   8.05999947  50.66999817
H    11.61999893   5.78000021  54.92000198
H     9.39000034   5.50000000  55.43000031
H     6.98999977   5.91000032  54.86999893
H     8.17000008   8.14000034  51.42000198
H    16.21999931   8.47000027  51.36000061
H     5.40000010   7.04999971  53.81000137
H     5.89999962   8.38000011  52.77000046
S    17.38999939   6.42000008  55.50000000
C    20.02000046   7.05999947  54.79999924
C    18.68000031   7.13000011  54.50000000
C    18.15999985   7.64999962  53.27999878
C    19.03000069   8.15999985  52.32999802
C    20.42000008   8.10000038  52.57999802
C    21.31000137   8.64000034  51.59999847
C    22.65999985   8.71000004  51.84999847
C    23.15999985   8.17000008  53.06999969
C    22.30999947   7.59000015  53.99000168
C    20.90999985   7.49000025  53.79000092
C    16.72999954   7.40999985  53.13000107
C    16.18000031   6.67999983  54.22000122
C    14.81999969   6.43000031  54.33000183
C    24.63999939   8.10000038  53.31999969
H    24.87497139   8.24952793  54.37381744
H    20.34000015   6.80000019  55.80999756
H    18.71000099   8.55000019  51.37000275
H    20.85000038   9.00000000  50.68999863
H    23.31000137   9.22000027  51.14999771
H    22.60999870   7.26999998  54.98000336
H    14.44000053   5.88000011  55.18000031
H    25.25000000   8.76000023  52.68000031
H    24.92000198   7.13000011  52.88000107
