96

S    16.72999954  12.58999920  58.61999893
C    19.43000031  12.79999924  57.97999954
C    18.17000008  12.43999958  57.57999802
C    17.79999924  11.95000076  56.29000092
C    18.84000015  11.77000046  55.38999939
C    20.13999939  12.22000027  55.76000214
C    21.21999931  11.89000034  54.88999939
C    22.50000000  12.22000027  55.27999878
C    22.82999992  12.96000004  56.45000076
C    21.80999947  13.20000076  57.34000397
C    20.46999931  12.82999992  57.01000214
C    16.36000061  11.80999947  56.17000198
C    15.60999966  12.13999939  57.31999969
C    14.22000027  12.10000038  57.35000229
C    24.26000214  13.36999989  56.70000076
H    24.72090149  12.66801071  57.39489746
H    19.63000107  13.19000053  58.96999741
H    18.71000099  11.07999992  54.56999969
H    21.07000160  11.30000019  54.00000000
H    23.32999992  11.94000053  54.64000320
H    21.97000122  13.59000015  58.34999847
H    13.73000050  12.46000099  58.25000000
H    24.84999847  13.50000000  55.77999878
H    24.25000000  14.34999943  57.18000031
S    13.15000057  10.90000057  53.75000000
C    10.42000008  10.75000000  54.45999908
C    11.72000027  11.05000019  54.79999924
C    12.02999973  11.57999992  56.09000397
C    11.02000046  11.69999981  57.02999878
C     9.68000031  11.38000011  56.70999908
C     8.60999966  11.44999981  57.63999939
C     7.31999969  11.10000038  57.30999756
C     7.00000000  10.54999924  56.04000092
C     8.05000019  10.39999962  55.15999603
C     9.38000011  10.84000015  55.40999985
C    13.45999908  11.77999973  56.22000122
C    14.22000027  11.35000038  55.08999634
C    15.60999966  11.39999962  55.06000137
C     5.59000015  10.14000034  55.68000031
H     5.17852545  10.77140141  54.89252090
H    10.21000004  10.31999969  53.47999954
H    11.35000038  11.96000004  58.02999878
H     8.84000015  11.82000065  58.62999725
H     6.57999992  11.18000031  58.09999847
H     7.85000038   9.98000050  54.16999817
H    16.13999939  11.10999966  54.15999985
H     5.00999975  10.10000038  56.60999680
H     5.69000006   9.07999992  55.41999817
S    17.27000046  12.81999969  52.63999939
C    19.97999954  12.81000042  51.97000122
C    18.68999863  12.53000069  51.60999680
C    18.26000023  12.20000076  50.27999878
C    19.23999977  12.18000031  49.29999924
C    20.56999969  12.57999992  49.55999756
C    21.55999947  12.56000042  48.54000092
C    22.86999893  12.88000011  48.83999634
C    23.22000122  13.23999977  50.17000198
C    22.27999878  13.23999977  51.17000198
C    20.94000053  12.84999943  50.91999817
C    16.80999947  12.13000107  50.10000229
C    16.14999962  12.53000069  51.29000092
C    14.77000046  12.67000008  51.35000229
C    24.64999962  13.63999939  50.45000076
H    25.19488525  13.06680965  51.20010376
H    20.17999840  13.14000034  52.98999786
H    18.88000107  11.95000076  48.29999924
H    21.27000046  12.30999947  47.52999878
H    23.64000130  12.76999950  48.09000015
H    22.52000046  13.60000038  52.16999817
H    14.22999954  12.88000011  52.27000427
H    25.19000053  13.48000050  49.51000214
H    24.79000092  14.70999908  50.63000107
S    13.61999989  11.92999935  47.62000275
C    10.92000008  11.73999977  48.23999786
C    12.18999958  12.05999947  48.66000366
C    12.56000042  12.28000069  50.02999878
C    11.54999924  12.38000011  50.96000290
C    10.22999954  12.10000038  50.54000092
C     9.18000031  12.02000046  51.50000000
C     7.92999983  11.54999924  51.17000198
C     7.67000008  11.02000046  49.87999725
C     8.59000015  11.17000008  48.87000275
C     9.88000011  11.69000053  49.20000076
C    13.99000072  12.44999981  50.20999908
C    14.70000076  12.18999958  49.01000214
C    16.06999969  11.97999954  48.92000198
C     6.28000021  10.53999996  49.52999878
H     5.77458191  11.33016014  48.97475052
H    10.78999996  11.39000034  47.22000122
H    11.78999996  12.76000023  51.95000076
H     9.43000031  12.50000000  52.43999863
H     7.13000011  11.59999943  51.90999985
H     8.40999985  10.78999996  47.87000275
H    16.63999939  11.84999943  48.01000214
H     5.68000031  10.40999985  50.44000244
H     6.21999979   9.57999992  48.99000168
