96

S    16.70999908  12.79999924  58.61000061
C    19.40000153  12.96000004  57.83000183
C    18.11000061  12.58999920  57.54000092
C    17.84000015  11.97999954  56.26999664
C    18.81999969  11.75000000  55.31999969
C    20.15999985  12.02000046  55.66999817
C    21.19999886  11.82000065  54.72000122
C    22.52000046  12.02999973  55.00999832
C    22.80999947  12.58999920  56.29000092
C    21.81999969  12.94000053  57.18000031
C    20.45000076  12.64999962  56.93000031
C    16.39000130  11.84999943  56.14999771
C    15.65999985  12.23000050  57.29999924
C    14.27999973  12.34000015  57.31999969
C    24.20999908  13.09999943  56.56999969
H    24.61536789  12.46705437  57.35940170
H    19.63999939  13.52000046  58.73000336
H    18.53999901  11.31999969  54.36000061
H    20.96999931  11.69000053  53.67000198
H    23.26000023  12.02999973  54.20999908
H    22.04999924  13.56999969  58.02999878
H    13.71000099  12.81999969  58.11000061
H    24.77999878  12.94999981  55.63999939
H    24.13999939  14.17000008  56.79000092
S    13.26000023  10.77000046  53.83999634
C    10.47999954  11.00999928  54.36000061
C    11.78999996  11.23000050  54.72000122
C    12.15000057  11.87999916  55.93999863
C    11.13000011  12.27000046  56.79000092
C     9.77999973  11.95000076  56.49000168
C     8.78000069  12.00000000  57.50000000
C     7.46000004  11.69999981  57.29000092
C     7.11999989  10.95999908  56.11999893
C     8.09000015  10.80000019  55.14999771
C     9.43000031  11.23999977  55.28999710
C    13.57999992  11.85999966  56.19999695
C    14.34000015  11.38000011  55.10000229
C    15.72000027  11.44000053  54.99000168
C     5.68000031  10.59000015  55.86999893
H     5.28152275  11.13790703  55.01611710
H    10.31999969  10.64000034  53.34999847
H    11.40999985  12.53999901  57.80000305
H     8.97999954  12.34000015  58.52000427
H     6.65999985  11.72000027  58.02999878
H     7.77999973  10.31999969  54.22000122
H    16.22999954  11.06999969  54.09999847
H     5.09000015  10.67000008  56.79000092
H     5.69999981   9.53999996  55.54999924
S    17.35999870  13.05999947  52.32999802
C    20.02000046  13.00000000  51.52000046
C    18.71999931  12.63000011  51.27999878
C    18.31999969  11.97000027  50.06999969
C    19.37000084  11.72999954  49.20000076
C    20.72999954  12.01000023  49.43999863
C    21.70999908  11.97999954  48.40999985
C    23.00000000  12.38000011  48.68000031
C    23.38999939  12.94000053  49.92000198
C    22.44999886  13.02000046  50.93000031
C    21.09999847  12.69000053  50.65999985
C    16.87000084  11.90999985  49.97000122
C    16.22999954  12.43000031  51.11999893
C    14.85000038  12.61999989  51.16000366
C    24.84999847  13.21000004  50.20999908
H    25.16197395  12.61441231  51.06793213
H    20.20000076  13.53999996  52.44999695
H    19.11000061  11.16000080  48.29999924
H    21.42000008  11.65999985  47.41000366
H    23.77000046  12.35000038  47.90999985
H    22.62000084  13.40000057  51.93000031
H    14.27999973  12.81000042  52.05999756
H    25.40999985  13.02000046  49.27999878
H    25.00999832  14.27999973  50.34000015
S    13.67000008  11.21999931  47.63000107
C    10.98999977  11.03000069  48.40000153
C    12.25000000  11.54000092  48.63999939
C    12.64000034  12.05999947  49.92000198
C    11.61000061  12.20999908  50.83000183
C    10.26000023  11.89000034  50.56999969
C     9.13999939  12.17000008  51.40999603
C     7.83999968  11.87000084  51.09000397
C     7.55000019  11.05999947  49.95999908
C     8.57999992  10.90000057  49.06000137
C     9.92999935  11.26999950  49.31000137
C    14.07999992  12.20000076  50.06999969
C    14.77000046  11.71000004  48.94000244
C    16.13999939  11.54000092  48.83999634
C     6.14000034  10.64000034  49.61999893
H     5.76314211  11.27283669  48.81650925
H    10.82999992  10.57999992  47.42000198
H    11.82999992  12.55000019  51.84000015
H     9.28999996  12.71999931  52.34000397
H     7.09999990  12.38000011  51.70000076
H     8.46000004  10.47000027  48.06999969
H    16.56999969  11.14999962  47.91999817
H     5.51000023  10.76000023  50.52000046
H     6.05000019   9.61000061  49.27000046
