96

S    16.86000061  12.35999966  58.61000061
C    19.61000061  12.35999966  57.91999817
C    18.30000114  12.05000019  57.62000275
C    17.94000053  11.61000061  56.31000137
C    18.95000076  11.47999954  55.38999939
C    20.30999947  11.72000027  55.70000076
C    21.37000084  11.49000072  54.78000259
C    22.67999840  11.73999977  55.11000061
C    23.03999901  12.23999977  56.38999939
C    22.04000092  12.46999931  57.30999756
C    20.66999817  12.23999977  56.98999786
C    16.50000000  11.59999943  56.09000397
C    15.78999996  12.01000023  57.25000000
C    14.40000057  12.00000000  57.36000061
C    24.50000000  12.43000031  56.72000122
H    24.82531166  11.70865917  57.46962738
H    19.72999954  12.82999992  58.88999939
H    18.65999985  11.25000000  54.36000061
H    21.11000061  10.85000038  53.93000031
H    23.45000076  11.49000072  54.38999939
H    22.22999954  12.75000000  58.34000015
H    13.89999962  12.35000038  58.26000214
H    25.12000084  12.43999958  55.81999969
H    24.53000069  13.42000008  57.18999863
S    13.20000076  10.80000019  53.79000092
C    10.47000027  10.73999977  54.50000000
C    11.77000046  11.06999969  54.80999756
C    12.18999958  11.52999973  56.10000229
C    11.18999958  11.72999954  57.02999878
C     9.81999969  11.46999931  56.77999878
C     8.71999931  11.77000046  57.63999939
C     7.40999985  11.49000072  57.31999969
C     7.09000015  10.88999939  56.07999802
C     8.13000011  10.52999973  55.25000000
C     9.47000027  10.95999908  55.47999954
C    13.63999939  11.61000061  56.25999832
C    14.32999992  11.32999992  55.05000305
C    15.71000004  11.23000050  54.99000168
C     5.65999985  10.50000000  55.77999878
H     5.22553587  11.15525818  55.02502823
H    10.22999954  10.19000053  53.60000229
H    11.31000042  12.20999908  57.98999786
H     8.86999989  12.25999928  58.59000397
H     6.63000011  11.56000042  58.06999969
H     8.01999950   9.94000053  54.34000015
H    16.25000000  10.81999969  54.13999939
H     4.96000004  10.57000065  56.62000275
H     5.69000006   9.43000031  55.52999878
S    16.97999954  12.67000008  52.41000366
C    19.68000031  12.48000050  51.77000046
C    18.38000107  12.28999996  51.38000107
C    17.97000122  11.96000004  50.05000305
C    18.96999931  11.87000084  49.09000015
C    20.31999969  12.10999966  49.40999985
C    21.31999969  12.05000019  48.39000320
C    22.65000153  12.10000038  48.73000336
C    22.98000145  12.53999901  50.04000092
C    22.06000137  12.61999989  51.05999756
C    20.69000053  12.38000011  50.77000046
C    16.53000069  11.90999985  49.86999893
C    15.88000107  12.30999947  51.06999969
C    14.48999977  12.42000008  51.04999924
C    24.40000153  12.82999992  50.47999954
H    24.84118271  12.14688110  51.20581436
H    20.00000000  12.71999931  52.77999878
H    18.68999863  11.64999962  48.06000137
H    21.07000160  11.92999935  47.34000397
H    23.31999969  12.11999989  47.87000275
H    22.29000092  12.65999985  52.11999893
H    14.06999969  12.53000069  52.04999924
H    25.13999939  12.97000027  49.68000031
H    24.34000015  13.82999992  50.93000031
S    13.30999947  11.13000011  47.50999832
C    10.59000015  11.16000080  48.16999817
C    11.90000057  11.32999992  48.56999969
C    12.28999996  11.87999916  49.82999802
C    11.26999950  12.11999989  50.73999786
C     9.92999935  11.76000023  50.45999908
C     8.90999985  11.87999916  51.44000244
C     7.60999966  11.49000072  51.19999695
C     7.26999998  11.18999958  49.85000229
C     8.19000053  11.10999966  48.83999634
C     9.56999969  11.31999969  49.13999939
C    13.73000050  12.07999992  49.93000031
C    14.42999935  11.64999962  48.77999878
C    15.80999947  11.49000072  48.75000000
C     5.78999996  11.03000069  49.59000015
H     5.46304083  11.57019329  48.70152283
H    10.42000008  11.00000000  47.11000061
H    11.46000004  12.51999950  51.72999954
H     9.09000015  12.15000057  52.48000336
H     6.86999989  11.63000011  51.97000122
H     7.90000010  10.88000107  47.81999969
H    16.34000015  10.95999908  47.95999908
H     5.17000008  11.44999981  50.38999939
H     5.46000004   9.98000050  49.54000092
