96

S    16.69999886  12.43999958  58.81000137
C    19.40000153  12.51999950  58.06000137
C    18.11000061  12.13999939  57.77000046
C    17.79999924  11.71000004  56.44000244
C    18.81000137  11.49000072  55.52999878
C    20.10999870  11.97000027  55.79000092
C    21.19999886  11.79999924  54.88999939
C    22.49000168  11.97000027  55.31999969
C    22.80999947  12.61999989  56.55000305
C    21.77000046  12.84999943  57.42000198
C    20.45000076  12.42000008  57.11000061
C    16.36000061  11.49000072  56.30000305
C    15.67000008  11.90000057  57.47000122
C    14.27999973  11.95000076  57.50999832
C    24.26000214  12.89999962  56.86000061
H    24.59351540  12.43875599  57.78958130
H    19.70999908  12.90999985  59.02999878
H    18.68000031  11.02000046  54.54999924
H    20.95999908  11.25000000  53.97999573
H    23.18000031  11.59999943  54.58000183
H    21.94000053  13.23999977  58.41999817
H    13.92000008  12.25999928  58.47999954
H    25.00000000  12.57999992  56.11999893
H    24.34000015  13.99000072  56.93999863
S    13.19000053  10.82999992  53.89999771
C    10.40999985  10.71000004  54.51000214
C    11.72000027  10.85999966  54.88999939
C    12.13000107  11.26999950  56.19999695
C    11.14999962  11.43000031  57.15999985
C     9.77999973  11.13999939  56.88999939
C     8.82999992  11.17000008  57.95000076
C     7.53000021  10.85999966  57.63000107
C     7.22000027  10.50000000  56.29000092
C     8.07999992  10.54999924  55.21999741
C     9.44000053  10.80000019  55.54000092
C    13.55000019  11.49000072  56.39999771
C    14.29999924  11.16000080  55.24000168
C    15.69000053  11.06999969  55.14999771
C     5.82999992   9.98999977  55.97000122
H     5.40382195  10.57244301  55.15316010
H    10.07999992  10.47999954  53.50000000
H    11.32999992  11.68000031  58.20000076
H     9.06999969  11.61000061  58.92000198
H     6.90999985  10.65000057  58.50000000
H     7.79999971  10.57000065  54.16999817
H    16.28000069  10.65000057  54.34999847
H     5.13000011   9.98999977  56.81000137
H     5.77000046   8.93999958  55.63999939
S    13.07000065   8.93999958  50.91999817
C    10.43000031   8.46000004  51.70999908
C    11.77999973   8.30000019  51.95999908
C    12.25999928   7.53000021  53.06000137
C    11.31000042   7.07999992  53.95000076
C     9.92000008   7.25000000  53.77999878
C     9.00000000   6.57999992  54.65000153
C     7.68000031   6.51999998  54.29000092
C     7.17000008   7.16000032  53.13000107
C     8.05999947   7.85000038  52.35000229
C     9.46000004   7.95000029  52.61000061
C    13.71000099   7.59999990  53.11999893
C    14.29999924   8.26000023  52.01000214
C    15.62000084   8.69000053  52.04000092
C     5.73999977   6.81999969  52.76000214
H     5.45669222   7.32995367  51.83924866
H    10.19000053   8.96000004  50.77999878
H    11.56999969   6.26999950  54.62999725
H     9.42000008   5.92999983  55.40999985
H     7.17000008   5.75999975  54.86999893
H     7.73999977   8.34999943  51.44000244
H    15.98000050   9.35999966  51.25999832
H     5.53999996   5.73999977  52.72999573
H     5.21000004   7.26999998  53.60000229
S    17.02000046   7.14999962  55.45000076
C    19.63000107   8.10000038  55.00999832
C    18.30999947   8.02999973  54.61000061
C    17.84000015   8.57999992  53.36999893
C    18.73999977   9.22999954  52.54000092
C    20.12000084   9.07999992  52.81999969
C    21.09000015   9.59999943  51.91999817
C    22.43999863   9.48999977  52.15000153
C    22.84000015   8.69999981  53.26000214
C    21.97999954   8.30000019  54.26000214
C    20.59000015   8.52999973  54.06000137
C    16.45000076   8.27999973  53.09000015
C    15.88000107   7.50999975  54.13000107
C    14.52999973   7.16000032  54.15999985
C    24.28999901   8.27999973  53.43999863
H    24.79711723   8.69426537  54.31138611
H    19.95000076   7.53000021  55.87999725
H    18.46999931   9.63999939  51.56999969
H    20.63999939  10.03000069  51.03000259
H    23.19000053   9.67000008  51.38000107
H    22.34000015   7.73000002  55.11000061
H    14.15999985   6.63000011  55.02999878
H    24.84999847   8.55000019  52.54000092
H    24.25000000   7.18999958  53.54000092
