96

S    17.12000084  12.56000042  58.31999969
C    19.78000069  12.65999985  57.44999695
C    18.45999908  12.35999966  57.16999817
C    18.07999992  11.92000008  55.86000061
C    19.06999969  11.69000053  54.92000198
C    20.43000031  12.02000046  55.14999771
C    21.45999908  11.82999992  54.19000244
C    22.78000069  11.92000008  54.54000092
C    23.12999916  12.46999931  55.79999924
C    22.17000008  12.65999985  56.76000214
C    20.79000092  12.42000008  56.49000168
C    16.62999916  11.87000084  55.84000015
C    15.95000076  12.23999977  57.02999878
C    14.56999969  12.35999966  57.09000015
C    24.54999924  12.89000034  56.11000061
H    25.04742050  12.19361210  56.78506851
H    19.98999977  13.10999966  58.40999985
H    18.84000015  11.18000031  53.99000168
H    21.18999863  11.44999981  53.20000076
H    23.55999947  11.77999973  53.80000305
H    22.39999962  13.00000000  57.77000046
H    14.13000011  12.71000004  58.02000046
H    25.07999802  12.89000034  55.14999771
H    24.53000069  13.89999962  56.52999878
S    13.35000038  10.86999989  53.57999802
C    10.64000034  11.11999989  54.34999847
C    11.97000027  11.38000011  54.56999969
C    12.36999989  11.96000004  55.80999756
C    11.43000031  12.23999977  56.77999878
C    10.07999992  11.84999943  56.62000275
C     9.06000042  12.07999992  57.57999802
C     7.71000004  11.94000053  57.34000397
C     7.34000015  11.36999989  56.10000229
C     8.26000023  11.06999969  55.12000275
C     9.64999962  11.30000019  55.35999680
C    13.81999969  12.02000046  55.96000290
C    14.46000004  11.43000031  54.84000397
C    15.84000015  11.44999981  54.75999832
C     5.95000029  10.82999992  55.84999847
H     5.48032522  11.40641975  55.05297470
H    10.36999893  10.78999996  53.34999847
H    11.78999996  12.64000034  57.71999741
H     9.38000011  12.30999947  58.60000229
H     6.93000031  12.25000000  58.02999878
H     7.94000053  10.78999996  54.12000275
H    16.36999893  11.21999931  53.83999634
H     5.42000008  10.98000050  56.79999924
H     6.07999992   9.77000046  55.59999847
S    13.78999901   8.93000031  50.54999924
C    11.13000011   8.85999966  51.40999603
C    12.42000008   8.43000031  51.56000137
C    12.84000015   7.76000023  52.76000214
C    11.90000057   7.40000010  53.69999695
C    10.54999924   7.75000000  53.50000000
C     9.51000023   7.21000004  54.31000137
C     8.17000008   7.23000002  53.97999573
C     7.78999996   7.88000011  52.77999878
C     8.73999977   8.38999939  51.91999817
C    10.11000061   8.38999939  52.29000092
C    14.28999996   7.77999973  52.88999939
C    14.93000031   8.47999954  51.83000183
C    16.28999901   8.73000050  51.81999969
C     6.34000015   8.26000023  52.61000061
H     5.97263718   7.73721361  51.72691727
H    10.81999969   9.07999992  50.38999939
H    12.10000038   6.78999996  54.58000183
H     9.76000023   6.91999960  55.33000183
H     7.42999983   6.90000010  54.69999695
H     8.47000027   8.89000034  50.98999786
H    16.61999893   9.15999985  50.87999725
H     5.78000021   8.05999947  53.53000259
H     6.32000017   9.32999992  52.36999893
S    17.70000076   7.03999996  55.10000229
C    20.35000038   7.86999989  54.52999878
C    19.00000000   7.90000010  54.26000214
C    18.53999901   8.38000011  52.98999786
C    19.45999908   8.93000031  52.11000061
C    20.85000038   8.82000065  52.32999802
C    21.78999901   9.39000034  51.42000198
C    23.11000061   9.47000027  51.77000046
C    23.52999878   9.02999973  53.06000137
C    22.69000053   8.38000011  53.93000031
C    21.31000137   8.32999992  53.60000229
C    17.10000038   8.23999977  52.84999847
C    16.47999954   7.50999975  53.89999771
C    15.11000061   7.30000019  53.92000198
C    24.96000099   9.26999950  53.50000000
H    25.28607368   8.70291615  54.37189102
H    20.63999939   7.26000023  55.38999939
H    19.07999992   9.23999977  51.13999939
H    21.44000053   9.77000046  50.45999908
H    23.85999870   9.98999977  51.18000031
H    23.05000114   8.11999989  54.92000198
H    14.60000038   6.97000027  54.81999969
H    25.17999840  10.34000015  53.60000229
H    25.53999901   8.84000015  52.67000198
