96

S    16.70999908  12.53999901  58.52000427
C    19.42000008  12.53000069  57.77000046
C    18.12000084  12.18999958  57.49000168
C    17.75000000  11.59999943  56.24000168
C    18.78000069  11.35000038  55.35999680
C    20.13999939  11.61000061  55.65000153
C    21.21999931  11.28000069  54.77000427
C    22.53000069  11.56999969  55.06999969
C    22.85000038  12.30000019  56.25000000
C    21.86000061  12.53999901  57.16999817
C    20.50000000  12.18999958  56.90999985
C    16.31000137  11.51000023  56.06999969
C    15.62999916  12.02000046  57.21000290
C    14.25000000  12.20999908  57.22999954
C    24.27999878  12.69000053  56.52999878
H    24.77998543  12.10430241  57.30140686
H    19.55999947  13.21000004  58.61000061
H    18.55999947  10.93999958  54.38000107
H    20.98999977  10.81999969  53.81000137
H    23.22999954  11.23000050  54.31999969
H    22.09000015  13.01000023  58.13000107
H    13.60999966  12.51000023  58.04999924
H    24.86000061  12.64000034  55.59999847
H    24.20000076  13.76999950  56.72000122
S    13.17999935  10.51000023  53.79000092
C    10.44000053  10.62000084  54.33000183
C    11.72000027  11.00000000  54.68000031
C    12.09000015  11.68000031  55.87999725
C    11.13000011  11.85999966  56.86000061
C     9.78999996  11.44999981  56.60999680
C     8.80999947  11.42000008  57.63999939
C     7.50999975  11.06999969  57.34000397
C     7.13000011  10.80000019  56.00000000
C     8.10999966  10.59000015  55.06000137
C     9.47000027  10.90999985  55.31999969
C    13.52000046  11.72000027  56.13999939
C    14.22999954  11.05999947  55.11000061
C    15.60999966  10.93000031  55.00999832
C     5.66999960  10.48999977  55.79000092
H     5.21602631  11.13549328  55.03810501
H    10.31000042   9.96999931  53.47000122
H    11.38000011  12.10000038  57.88999939
H     9.02000046  11.90000057  58.59000397
H     6.76999998  11.07999992  58.13999939
H     7.86999989  10.05000019  54.15000153
H    16.07999992  10.50000000  54.13000107
H     5.31000042  10.67000008  56.81000137
H     5.59999990   9.39999962  55.72999954
S    17.07999992  12.65999985  52.60000229
C    19.78000069  12.51999950  51.88000107
C    18.45999908  12.34000015  51.52999878
C    18.12999916  11.77999973  50.25000000
C    19.12999916  11.44000053  49.36000061
C    20.46999931  11.84000015  49.61000061
C    21.51000023  11.82000065  48.63999939
C    22.78000069  12.28000069  48.94000244
C    23.09000015  12.76000023  50.22999573
C    22.13000107  12.75000000  51.22000122
C    20.79999924  12.32999992  50.91999817
C    16.68000031  11.72999954  50.13000107
C    15.98999977  12.15000057  51.30000305
C    14.60999966  12.31999969  51.33999634
C    24.50000000  13.17000008  50.58000183
H    24.99628258  12.53901386  51.31733704
H    19.88999939  13.02000046  52.84000015
H    18.77000046  11.11999989  48.39000320
H    21.18000031  11.52999973  47.64999771
H    23.55999947  12.30000019  48.18999863
H    22.39999962  13.20000076  52.16999817
H    14.21000004  12.55000019  52.32999802
H    25.02000046  13.22999954  49.61999893
H    24.44000053  14.15999985  51.05999756
S    13.38999939  11.23999977  47.71999741
C    10.78999996  11.00999928  48.47999954
C    12.02000046  11.52999973  48.81000137
C    12.38999939  11.97999954  50.12000275
C    11.42000008  11.97999954  51.11000061
C    10.06999969  11.72999954  50.77000046
C     8.94999981  11.84000015  51.63999939
C     7.64999962  11.52999973  51.30000305
C     7.42999983  11.02000046  50.00000000
C     8.45000076  10.90999985  49.06999969
C     9.77999973  11.23000050  49.45000076
C    13.82999992  12.15000057  50.19000244
C    14.50000000  11.61999893  49.05000305
C    15.88000107  11.46000004  49.02000046
C     6.05000019  10.65999985  49.51000214
H     5.67874908  11.38108253  48.78177643
H    10.47000027  10.75000000  47.48000336
H    11.67000008  12.44999981  52.05999756
H     9.11000061  12.25000000  52.63999939
H     6.84000015  11.76000023  51.97999954
H     8.25000000  10.59000015  48.04999924
H    16.42000008  11.11999989  48.13999939
H     5.35000038  10.55999947  50.35999680
H     6.10000038   9.72000027  48.94000244
