96

S    16.93000031  12.13999939  58.61999893
C    19.56999969  12.35000038  57.94000244
C    18.32999992  11.92999935  57.55000305
C    17.92000008  11.64000034  56.19999695
C    18.96999931  11.56000042  55.31000137
C    20.29999924  11.87000084  55.66999817
C    21.45000076  11.77999973  54.84000397
C    22.72999954  12.15999985  55.14999771
C    23.02999878  12.61000061  56.45999908
C    21.96000099  12.71999931  57.31999969
C    20.62000084  12.35999966  56.98999786
C    16.46999931  11.49000072  56.10000229
C    15.78999996  11.85999966  57.29000092
C    14.40999985  12.02000046  57.35000229
C    24.46000099  12.97000027  56.81000137
H    24.88889313  12.29806900  57.55341339
H    19.59000015  12.75000000  58.95000076
H    18.88000107  11.06999969  54.34000015
H    21.25000000  11.46000004  53.81999969
H    23.46999931  12.15000057  54.34999847
H    22.11999893  12.98999977  58.36000061
H    13.89000034  12.41000080  58.22000122
H    25.06999969  13.02000046  55.90000153
H    24.40999985  13.97999954  57.23999786
S    13.15999985  11.02000046  53.68999863
C    10.47000027  10.98000050  54.47000122
C    11.77000046  11.31999969  54.75999832
C    12.20000076  11.68000031  56.07999802
C    11.23000050  11.64999962  57.04999924
C     9.85999966  11.46000004  56.73999786
C     8.80000019  11.46000004  57.70000076
C     7.50000000  11.10999966  57.42000198
C     7.13999987  10.62000084  56.13999939
C     8.11999989  10.52000046  55.19000244
C     9.43000031  11.03000069  55.44000244
C    13.64999962  11.76000023  56.19999695
C    14.29999924  11.30000019  55.01999664
C    15.67999935  11.14999962  55.00000000
C     5.78000021  10.03999901  55.81999969
H     5.16273594  10.65726376  55.16725922
H    10.25000000  10.62999916  53.46000290
H    11.52999973  11.87000084  58.06999969
H     8.97000027  11.72999954  58.74000168
H     6.78999996  11.31000042  58.20999908
H     7.88000011  10.14000034  54.20000076
H    16.10999870  10.72000027  54.09999847
H     5.22000027   9.77000046  56.72999954
H     5.91000032   9.02000046  55.44000244
S    13.47000027   8.96000004  50.83000183
C    10.80000019   8.31999969  51.47999573
C    12.15000057   8.22000027  51.76000214
C    12.60000038   7.53999996  52.94000244
C    11.64999962   7.00000000  53.80000305
C    10.26999950   7.05999947  53.50000000
C     9.23999977   6.67999983  54.40000153
C     7.90000010   6.71000004  54.08000183
C     7.50000000   7.37999964  52.90000153
C     8.43000031   7.96000004  52.06999969
C     9.81000042   7.76999998  52.32999802
C    14.00000000   7.85000038  53.15000153
C    14.63000107   8.57999992  52.11999893
C    15.98000050   8.92000008  52.06999969
C     6.05000019   7.76000023  52.68000031
H     5.66004801   7.31332779  51.76538467
H    10.50000000   8.96000004  50.65999985
H    11.96000004   6.84000015  54.82999802
H     9.52999973   6.24000025  55.34999847
H     7.13999987   6.42000008  54.79999924
H     8.10999966   8.52000046  51.18999863
H    16.34000015   9.52999973  51.25000000
H     5.45000029   7.49000025  53.55999756
H     6.01000023   8.85000038  52.58999634
S    17.34000015   7.44000006  55.50000000
C    19.96999931   7.76000023  54.65999985
C    18.63000107   7.97999954  54.40999985
C    18.22000122   8.53999996  53.15999985
C    19.11999893   9.01000023  52.22999954
C    20.50000000   8.92000008  52.54000092
C    21.45000076   9.48999977  51.63999939
C    22.79000092   9.51000023  51.95999908
C    23.22999954   8.93999958  53.18000031
C    22.34000015   8.19999981  53.93000031
C    20.93000031   8.27999973  53.75999832
C    16.76000023   8.48999977  53.13999939
C    16.14999962   7.90000010  54.27000046
C    14.81999969   7.49000025  54.22999954
C    24.69000053   8.85999966  53.59000397
H    24.91895294   8.68828392  54.64176178
H    20.26000023   7.09000015  55.45999908
H    18.78000069   9.51000023  51.32999802
H    21.07999992  10.08999920  50.81999969
H    23.54000092   9.96999931  51.32999802
H    22.75000000   7.69999981  54.79999924
H    14.42999935   6.81999969  55.00000000
H    25.20000076   9.77000046  53.26000214
H    25.12000084   8.03999996  53.00000000
