96

S    17.12000084  12.30000019  58.52000427
C    19.82999992  12.38000011  57.65999603
C    18.50000000  12.10000038  57.43999863
C    18.13999939  11.61999893  56.13999939
C    19.10000038  11.36999989  55.17000198
C    20.46999931  11.64000034  55.44000244
C    21.51000023  11.28999901  54.54000092
C    22.84000015  11.51000023  54.84000397
C    23.21000099  12.06999969  56.09000397
C    22.23999977  12.36999989  57.02000046
C    20.86999893  12.13000107  56.72999954
C    16.69999886  11.46999931  56.00000000
C    16.03000069  11.95000076  57.15999985
C    14.65000057  12.05999947  57.28000259
C    24.64999962  12.43000031  56.38999939
H    24.97801208  12.03780937  57.35264969
H    20.17000008  12.82999992  58.59000397
H    18.75000000  11.21000099  54.15999985
H    21.24000168  11.06999969  53.50999832
H    23.61000061  11.31000042  54.09999847
H    22.46999931  12.79999924  58.00000000
H    14.27999973  12.36999989  58.25000000
H    25.34000015  12.01000023  55.65000153
H    24.63000107  13.52000046  56.35000229
S    13.43999958  10.93000031  53.59000397
C    10.70000076  10.93999958  54.31999969
C    12.02999973  11.13999939  54.64000320
C    12.43999958  11.54999924  55.94999695
C    11.52999973  11.77999973  56.97000122
C    10.15999985  11.56999969  56.68000031
C     9.15000057  11.72999954  57.68000031
C     7.82000017  11.44999981  57.47000122
C     7.42999983  11.14999962  56.12999725
C     8.38000011  10.92000008  55.15999603
C     9.76000023  11.18999958  55.34999847
C    13.86999989  11.68000031  56.18999863
C    14.48999977  11.31000042  54.97000122
C    15.88000107  11.25000000  54.88999939
C     5.98999977  10.73999977  55.93000031
H     5.56328583  11.14537811  55.01256561
H    10.42000008  10.44999981  53.40000153
H    11.73999977  12.02000046  58.01000214
H     9.56999969  12.23000050  58.54999924
H     7.05999947  11.69999981  58.18999863
H     8.07999992  10.62999916  54.15000153
H    16.21999931  11.13999939  53.87000275
H     5.38999987  11.13999939  56.75000000
H     5.88999987   9.64999962  56.02000427
S    13.92000008   9.01000023  50.66999817
C    11.17000008   8.60999966  51.25999832
C    12.50000000   8.46000004  51.58000183
C    12.86999893   7.86000013  52.83000183
C    11.90000057   7.36000013  53.67000198
C    10.52000046   7.50999975  53.37999725
C     9.52000046   6.93000031  54.20999908
C     8.21000004   6.84000015  53.79000092
C     7.83999968   7.48000050  52.57999802
C     8.78999996   8.03999996  51.75000000
C    10.15999985   8.13000011  52.12999725
C    14.29999924   7.88000011  53.06999969
C    14.96999931   8.56000042  52.02000046
C    16.34000015   8.84000015  52.08000183
C     6.46000004   7.18999958  52.04000092
H     5.72266674   7.68628168  52.67098618
H    10.93000031   9.02000046  50.28999710
H    12.18000031   6.61999989  54.43000031
H     9.90999985   6.51000023  55.13000107
H     7.49000025   6.34999990  54.43000031
H     8.47999954   8.26000023  50.72999954
H    16.72000122   9.42000008  51.24000168
H     6.43000031   7.57000017  51.00999832
H     6.28000021   6.11000013  51.95999908
S    17.54999924   7.07999992  55.45000076
C    20.22999954   7.35000038  54.68999863
C    18.92000008   7.73000002  54.51000214
C    18.52000046   8.45000076  53.34000015
C    19.47000122   8.82000065  52.39999771
C    20.84000015   8.69999981  52.72999573
C    21.86000061   9.22999954  51.90000153
C    23.19000053   8.97999954  52.18000031
C    23.55999947   8.10000038  53.22000122
C    22.60999870   7.59000015  54.08000183
C    21.22999954   7.85000038  53.82999802
C    17.07999992   8.38000011  53.16999817
C    16.42000008   7.73999977  54.25000000
C    15.06999969   7.42999983  54.15000153
C    25.03000069   7.79999971  53.43999863
H    25.32789612   8.17591476  54.41879654
H    20.45999908   6.78999996  55.59999847
H    19.17000008   9.22000027  51.44000244
H    21.63000107   9.72999954  50.96000290
H    23.92000008   9.51000023  51.58000183
H    22.75000000   6.80999994  54.82999802
H    14.52999973   6.84999990  54.89999771
H    25.46999931   8.34000015  52.58999634
H    25.13000107   6.71000004  53.43999863
