96

S    16.61999893  12.38999939  58.34999847
C    19.26000023  12.67000008  57.62000275
C    18.04000092  12.11999989  57.31999969
C    17.78000069  11.36999989  56.12999725
C    18.82999992  11.05999947  55.27999878
C    20.12000084  11.51999950  55.63000107
C    21.24000168  11.18000031  54.81999969
C    22.46999931  11.69000053  55.15999603
C    22.73999977  12.53999901  56.25999832
C    21.68000031  12.79000092  57.09999847
C    20.36999893  12.32999992  56.79999924
C    16.34000015  11.30000019  55.96000290
C    15.57999992  11.71000004  57.08000183
C    14.19000053  11.77999973  57.09999847
C    24.14999962  12.96000004  56.59999847
H    24.55669403  12.38919926  57.43479538
H    19.37999916  13.25000000  58.53000259
H    18.78000069  10.32999992  54.47000122
H    21.02999878  10.52000046  53.99000168
H    23.28000069  11.56000042  54.43999863
H    21.77000046  13.19000053  58.11000061
H    13.52000046  12.15000057  57.87000275
H    24.79999924  13.04999924  55.72000122
H    24.06999969  14.00000000  56.93000031
S    13.15000057  10.70000076  53.50000000
C    10.36999893  10.72999954  54.15000153
C    11.67000008  11.07999992  54.41999817
C    12.01000023  11.59000015  55.70999908
C    11.03000069  11.82000065  56.65999985
C     9.67000008  11.51999950  56.36000061
C     8.56000042  11.75000000  57.22000122
C     7.26999998  11.40999985  56.91999817
C     6.94000006  10.84000015  55.65999985
C     7.97999954  10.57999992  54.79000092
C     9.32999992  10.93000031  55.10000229
C    13.45000076  11.54999924  55.93999863
C    14.22999954  11.06999969  54.86000061
C    15.59999943  10.82999992  54.86999893
C     5.56999969  10.42000008  55.19000244
H     5.20024538  11.03862667  54.37227249
H    10.24000072  10.03999901  53.31999969
H    11.18000031  12.28999996  57.62000275
H     8.82000065  12.05999947  58.22999954
H     6.48999977  11.56000042  57.65999603
H     7.83999968  10.14999962  53.81000137
H    16.13000107  10.36000061  54.05000305
H     5.00999975  10.47000027  56.12999725
H     5.64000034   9.35999966  54.88999939
S    17.09000015  12.55000019  52.36000061
C    19.78999901  12.57999992  51.79999924
C    18.51000023  12.41000080  51.30000305
C    18.18000031  12.17000008  49.93000031
C    19.26000023  12.05999947  49.06999969
C    20.59000015  12.17000008  49.52999878
C    21.75000000  12.09000015  48.69999695
C    23.02999878  12.38999939  49.10999680
C    23.25000000  12.84000015  50.44000244
C    22.20999908  12.77999973  51.32999802
C    20.88000107  12.51000023  50.90000153
C    16.73999977  12.03999996  49.75000000
C    16.03999901  12.38999939  50.93000031
C    14.65999985  12.51000023  50.93000031
C    24.54000092  13.52000046  50.84000015
H    25.21401024  12.86017799  51.38630295
H    19.90999985  12.67000008  52.88000107
H    19.12999916  11.73999977  48.04000092
H    21.53000069  11.73999977  47.70000076
H    23.85999870  12.48999977  48.41999817
H    22.29000092  13.09000015  52.36999893
H    14.14999962  12.56000042  51.88999939
H    24.96000099  13.94999981  49.92000198
H    24.44999886  14.32999992  51.56999969
S    13.67000008  11.59000015  47.18999863
C    10.97000027  11.36000061  47.94000244
C    12.23999977  11.82999992  48.20999908
C    12.57999992  12.31999969  49.51000214
C    11.59000015  12.41000080  50.47000122
C    10.26000023  12.07999992  50.13999939
C     9.23999977  12.03999996  51.13999939
C     7.96999979  11.64999962  50.79000092
C     7.63000011  11.16000080  49.50000000
C     8.61999989  11.02000046  48.55999756
C     9.89999962  11.57999992  48.83999634
C    14.01999950  12.42000008  49.68999863
C    14.73999977  12.03999996  48.53000259
C    16.10000038  11.73999977  48.54000092
C     6.21999979  10.71000004  49.22000122
H     5.60810375  11.47131252  48.73617554
H    10.85999966  10.71000004  47.06999969
H    11.75000000  12.77999973  51.47999573
H     9.57999992  12.27000046  52.15000153
H     7.27999973  11.59000015  51.63000107
H     8.43999958  10.65000057  47.55000305
H    16.57999992  11.39999962  47.63000107
H     5.82999992  10.42000008  50.20000076
H     6.25999975   9.72000027  48.75000000
