96

S    16.69999886  12.18999958  58.29999924
C    19.40999985  12.51999950  57.67000198
C    18.15000153  12.10000038  57.29999924
C    17.86000061  11.64000034  55.97000122
C    18.86000061  11.40999985  55.05000305
C    20.15999985  11.77000046  55.47999954
C    21.22999954  11.59000015  54.54999924
C    22.52000046  11.95000076  54.85000229
C    22.79000092  12.50000000  56.12999725
C    21.83000183  12.60000038  57.11000061
C    20.46999931  12.38999939  56.73999786
C    16.43000031  11.59999943  55.70000076
C    15.70000076  12.00000000  56.84999847
C    14.30999947  12.02999973  56.88999939
C    24.23999977  12.76999950  56.46999741
H    24.61591530  12.04654121  57.19345856
H    19.52999878  12.76000023  58.72000122
H    18.67000008  11.02000046  54.05000305
H    20.86999893  11.52999973  53.53000259
H    23.29000092  11.98999977  54.09000015
H    22.04000092  12.72999954  58.16999817
H    13.97999954  12.36999989  57.87000275
H    24.84999847  12.72999954  55.54999924
H    24.27000046  13.75000000  56.95999908
S    13.25000000  10.71000004  53.31999969
C    10.52999973  10.44999981  54.03999710
C    11.79999924  10.92000008  54.31999969
C    12.15000057  11.44999981  55.59999847
C    11.18999958  11.63000011  56.58000183
C     9.89000034  11.13000011  56.32999802
C     8.78999996  11.28999901  57.22000122
C     7.50000000  10.90999985  56.95000076
C     7.23000002  10.11999989  55.79999924
C     8.27999973   9.92000008  54.93000031
C     9.57999992  10.47000027  55.08999634
C    13.56999969  11.73999977  55.73999786
C    14.30999947  11.32999992  54.61000061
C    15.70000076  11.23999977  54.55999756
C     5.86000013   9.57999992  55.47000122
H     5.38196516  10.24354172  54.74937820
H    10.19000053  10.11000061  53.06999969
H    11.36000061  12.20000076  57.49000168
H     9.07999992  11.72999954  58.16999817
H     6.72999954  11.17000008  57.67000198
H     8.23000050   9.46000004  53.95000076
H    16.22999954  10.93000031  53.67000198
H     5.23999977   9.55000019  56.38000107
H     5.88999987   8.56999969  55.04000092
S    17.15999985  12.96000004  52.22999954
C    19.90999985  12.72999954  51.58000183
C    18.59000015  12.58999920  51.24000168
C    18.26000023  12.15999985  49.91000366
C    19.27000046  12.02999973  48.97999573
C    20.62999916  12.23999977  49.33000183
C    21.68000031  12.01000023  48.40000153
C    22.98000145  12.31999969  48.73000336
C    23.35000038  12.75000000  50.02999878
C    22.32999992  13.00000000  50.93000031
C    20.96999931  12.72999954  50.63999939
C    16.81999969  12.02999973  49.72999954
C    16.11999893  12.46999931  50.87999725
C    14.73000050  12.56000042  50.91999817
C    24.79999924  13.12999916  50.26000214
H    25.24027252  12.51929951  51.04823303
H    20.07999802  13.20000076  52.55000305
H    19.00000000  11.72999954  47.97999954
H    21.45000076  11.69999981  47.37999725
H    23.71000099  12.20999908  47.94000244
H    22.50000000  13.23999977  51.97000122
H    14.14000034  13.01000023  51.70999908
H    25.38999939  12.88000011  49.36999893
H    24.89000130  14.19999981  50.45000076
S    13.63999939  11.02000046  47.38999939
C    10.95000076  10.98999977  48.18999863
C    12.25999928  11.25000000  48.48999786
C    12.56999969  11.77999973  49.78000259
C    11.56999969  11.94000053  50.72999954
C    10.19999981  11.75000000  50.44000244
C     9.13000011  11.82999992  51.38000107
C     7.83999968  11.52999973  51.04000092
C     7.55999994  11.05000019  49.72999954
C     8.57999992  10.82999992  48.83999634
C     9.92999935  11.13999939  49.16999817
C    14.01000023  11.97999954  49.86999893
C    14.70000076  11.51000023  48.72000122
C    16.09000015  11.52999973  48.63999939
C     6.21000004  10.40999985  49.48999786
H     5.59079027  10.96515274  48.78538132
H    10.64000034  10.57999992  47.22999954
H    11.85999966  12.28999996  51.70999908
H     9.47000027  12.22000027  52.34000397
H     7.09999990  11.69999981  51.81000137
H     8.31999969  10.26999950  47.94000244
H    16.60000038  11.00999928  47.84000015
H     5.63000011  10.39000034  50.40999985
H     6.44999981   9.39000034  49.15000153
