96

S    16.84000015  12.18999958  58.43999863
C    19.55999947  12.22000027  57.84000015
C    18.27000046  11.97000027  57.42000198
C    17.97999954  11.61000061  56.06999969
C    18.98999977  11.44999981  55.13999939
C    20.32999992  11.69999981  55.52000046
C    21.34000015  11.59999943  54.52999878
C    22.67000008  11.63000011  54.89999771
C    22.95000076  11.97000027  56.25000000
C    21.97999954  12.22000027  57.18999863
C    20.59999847  12.03999996  56.88999939
C    16.54000092  11.40999985  55.93000031
C    15.78999996  11.72000027  57.09000015
C    14.40000057  11.77999973  57.18000031
C    24.37000084  12.23000050  56.68000031
H    24.71113777  11.49797344  57.41202545
H    19.73999977  12.55000019  58.86000061
H    18.78000069  11.23999977  54.09000015
H    21.01000023  11.14999962  53.60000229
H    23.51000023  11.43000031  54.23999786
H    22.23999977  12.69000053  58.13999939
H    13.80000019  11.94000053  58.06999969
H    25.03999901  12.23000050  55.80999756
H    24.43000031  13.23999977  57.11000061
S    13.26000023  10.88000107  53.53000259
C    10.48999977  10.88000107  54.18000031
C    11.80999947  11.10000038  54.52000046
C    12.20000076  11.44999981  55.84999847
C    11.21000099  11.65999985  56.79000092
C     9.85000038  11.46999931  56.46999741
C     8.80999947  11.64000034  57.42000198
C     7.48000050  11.46000004  57.09000015
C     7.17999983  10.84000015  55.84999847
C     8.11999989  10.72000027  54.86000061
C     9.47000027  11.10000038  55.13000107
C    13.63999939  11.47999954  56.04999924
C    14.37999916  11.18000031  54.86999893
C    15.76000023  11.02000046  54.84000397
C     5.77000046  10.36999893  55.59000015
H     5.19473314  10.83163452  54.78746796
H    10.21999931  10.44999981  53.22000122
H    11.46999931  11.96000004  57.81000137
H     9.19000053  11.92000008  58.40000153
H     6.69000053  11.69000053  57.80000305
H     7.92000008  10.29999924  53.88000107
H    16.25000000  10.90999985  53.87000275
H     5.17000008  10.55999947  56.47999573
H     5.86999989   9.27999973  55.48999786
S    13.45999908   8.85000038  50.68999863
C    10.80000019   8.36999989  51.25999832
C    12.10999966   8.27999973  51.69000244
C    12.51999950   7.51999950  52.83000183
C    11.56999969   6.84999990  53.57999802
C    10.19999981   7.04999971  53.29999924
C     9.22999954   6.57999992  54.22999954
C     7.88999987   6.75000000  53.95000076
C     7.51999950   7.40000010  52.74000168
C     8.43999958   7.88000011  51.84000015
C     9.84000015   7.76000023  52.09999847
C    13.96999931   7.55999994  52.94000244
C    14.61999989   8.28999996  51.90999985
C    15.98000050   8.57999992  51.86000061
C     6.05999994   7.71000004  52.48000336
H     5.68326235   7.19109774  51.59857941
H    10.44000053   8.80000019  50.33000183
H    11.92000008   6.53999996  54.55999756
H     9.52999973   6.06999969  55.13999939
H     7.23999977   6.57000017  54.79000092
H     8.19000053   8.43999958  50.94999695
H    16.44000053   9.04999924  50.98999786
H     5.33999968   7.49000025  53.27999878
H     5.95000029   8.76999950  52.25000000
S    17.36999893   6.80000019  55.13000107
C    20.03999901   7.37999964  54.52000046
C    18.71000099   7.53000021  54.22000122
C    18.25000000   8.18000031  53.02999878
C    19.18000031   8.76999950  52.18999863
C    20.53999901   8.80000019  52.56999969
C    21.51000023   9.30000019  51.65999985
C    22.84000015   9.17000008  51.98999786
C    23.31000137   8.25000000  52.97000122
C    22.36999893   7.69000006  53.80000305
C    20.98999977   8.00000000  53.67000198
C    16.79999924   8.14000034  52.90000153
C    16.20000076   7.35000038  53.90999603
C    14.85000038   7.03000021  53.89999771
C    24.79000092   7.97999954  53.06000137
H    25.25474167   8.30889511  53.98948669
H    20.30999947   6.61999989  55.25000000
H    18.89999962   9.22000027  51.23000336
H    21.25999832   9.77000046  50.70999908
H    23.54000092   9.61000061  51.27999878
H    22.60999870   6.83000040  54.40999985
H    14.46000004   6.47000027  54.75000000
H    25.29999924   8.47999954  52.22000122
H    24.97999954   6.94000006  52.72999573
