96

S    16.94000053  12.30999947  58.47000122
C    19.64999962  12.56000042  57.61000061
C    18.32999992  12.27000046  57.36000061
C    17.93000031  11.78999996  56.07999802
C    18.90999985  11.69000053  55.11000061
C    20.28000069  12.01000023  55.27999878
C    21.24000168  11.82000065  54.23999786
C    22.55000114  12.09000015  54.56999969
C    22.93000031  12.43999958  55.89000320
C    22.00000000  12.72999954  56.86000061
C    20.62999916  12.51000023  56.58000183
C    16.48999977  11.59999943  55.96000290
C    15.80000019  11.92999935  57.15999985
C    14.40999985  11.98999977  57.16999817
C    24.34000015  12.90999985  56.16000366
H    24.79532623  12.31238461  56.94971085
H    20.03999901  12.81000042  58.60000229
H    18.57999992  11.13000011  54.23999786
H    20.88000107  11.54999924  53.25000000
H    23.19999886  12.11999989  53.69999695
H    22.26000023  13.07000065  57.85999680
H    13.88000011  12.02999973  58.11000061
H    24.96999931  12.94000053  55.25000000
H    24.33000183  13.96000004  56.46999741
S    13.31999969  11.13999939  53.46000290
C    10.62000084  10.71000004  54.25000000
C    11.90000057  11.11999989  54.52999878
C    12.25999928  11.56999969  55.84999847
C    11.31999969  11.69000053  56.86000061
C     9.98999977  11.31000042  56.56999969
C     9.01000023  11.21999931  57.60000229
C     7.75000000  10.78999996  57.27000427
C     7.32999992  10.43000031  55.96000290
C     8.30000019  10.40999985  54.99000168
C     9.63999939  10.81999969  55.26000214
C    13.68999958  11.79999924  55.98999786
C    14.40999985  11.56999969  54.79000092
C    15.78999996  11.35000038  54.78000259
C     5.89999962  10.01000023  55.72999954
H     5.33900785  10.56389046  54.97727585
H    10.39000034  10.18000031  53.31999969
H    11.59000015  11.89000034  57.88999939
H     9.23999977  11.59999943  58.59000397
H     7.04999971  10.85000038  58.09999847
H     8.01999950  10.14999962  53.96999741
H    16.29999924  11.02000046  53.88000107
H     5.44000053   9.98000050  56.72999954
H     5.86999989   8.97999954  55.35999680
S    16.94000053  13.03999996  52.15000153
C    19.65999985  13.12000084  51.56000137
C    18.42000008  12.60000038  51.26999664
C    18.12000084  12.03999996  49.98000336
C    19.15999985  11.71000004  49.15000153
C    20.46999931  12.10000038  49.52000046
C    21.54999924  11.73999977  48.67000198
C    22.79999924  12.30999947  48.79000092
C    23.00000000  13.17999935  49.88999939
C    22.06000137  13.40999985  50.86999893
C    20.75000000  12.89000034  50.68999863
C    16.68000031  11.96000004  49.75000000
C    15.92000008  12.58999920  50.77000046
C    14.55999947  12.82999992  50.66999817
C    24.33000183  13.85000038  50.15999603
H    24.98148537  13.31889820  50.85396957
H    19.81999969  13.71999931  52.45999908
H    18.95000076  11.06999969  48.29000092
H    21.28000069  11.30000019  47.70999908
H    23.59000015  12.05999947  48.09999847
H    22.27999878  14.02999973  51.73999786
H    14.04000092  13.21000004  51.53999710
H    24.87999916  13.96999931  49.22000122
H    24.10000038  14.84000015  50.58000183
S    13.55000019  10.81999969  47.42000198
C    10.81999969  10.93999958  48.09999847
C    12.13000107  11.31000042  48.34999847
C    12.43999958  12.13000107  49.47999954
C    11.52999973  12.42000008  50.47999954
C    10.24000072  11.85999966  50.34000015
C     9.35000038  11.87999916  51.45999908
C     8.06999969  11.39999962  51.35000229
C     7.67000008  10.90999985  50.06999969
C     8.53999996  10.69000053  49.02999878
C     9.89000034  11.13000011  49.15000153
C    13.88000011  12.28999996  49.56999969
C    14.63999939  11.65999985  48.54999924
C    16.02000046  11.50000000  48.60000229
C     6.23000050  10.57999992  49.75999832
H     5.76831579  11.18374157  48.97869110
H    10.48999977  10.48999977  47.16999817
H    11.77000046  12.84999943  51.45999908
H     9.80000019  12.43999958  52.27000427
H     7.34000015  11.69999981  52.09000015
H     8.10000038  10.26000023  48.13999939
H    16.47999954  11.05999947  47.72999573
H     5.72000027  10.72000027  50.72000122
H     6.11999989   9.52000046  49.48999786
