96

S    16.54999924  12.64999962  58.15999985
C    19.29999924  12.64999962  57.62000275
C    18.02000046  12.30999947  57.22999954
C    17.77000046  11.77000046  55.93000031
C    18.78999901  11.64999962  55.00000000
C    20.12000084  11.95000076  55.37000275
C    21.21000099  11.68000031  54.48999786
C    22.47999954  12.05000019  54.85000229
C    22.72000122  12.64999962  56.11999893
C    21.70000076  12.76999950  57.02999878
C    20.36000061  12.39999962  56.70999908
C    16.34000015  11.59999943  55.70999908
C    15.57999992  12.13000107  56.77999878
C    14.21000004  12.35000038  56.72999954
C    24.10000038  13.15000057  56.47999573
H    24.51824188  12.37731743  57.12508011
H    19.42000008  13.00000000  58.63999939
H    18.47999954  11.26999950  54.02999878
H    21.00000000  11.30000019  53.48999786
H    23.25000000  12.05999947  54.08000183
H    21.94999886  13.26000023  57.97000122
H    13.60999966  12.76000023  57.54000092
H    24.70000076  13.26000023  55.56000137
H    23.95999908  14.13000011  56.95000076
S    13.14000034  10.88000107  53.18999863
C    10.39000034  10.84000015  53.88999939
C    11.69000053  11.19999981  54.15999985
C    12.11999989  11.73999977  55.41999817
C    11.16000080  12.11999989  56.33999634
C     9.80000019  11.77000046  56.14999771
C     8.76000023  12.11999989  57.06999969
C     7.44999981  11.82000065  56.77000046
C     7.13000011  11.10000038  55.59000015
C     8.11999989  10.71000004  54.71000290
C     9.44999981  11.17000008  54.88999939
C    13.55999947  11.87000084  55.59000015
C    14.27000046  11.31000042  54.48999786
C    15.65000057  11.18999958  54.54999924
C     5.71000004  10.60999966  55.45999908
H     5.19096470  11.19302654  54.69922256
H    10.07999992  10.39000034  52.95000076
H    11.46000004  12.48999977  57.30999756
H     9.03999996  12.48000050  58.04999924
H     6.70000029  11.95000076  57.55000305
H     7.82999992  10.01000023  53.93000031
H    16.20000076  10.90000057  53.67000198
H     5.26000023  10.81999969  56.44000244
H     5.75999975   9.53999996  55.26000214
S    16.95000076  13.12999916  52.01000214
C    19.70999908  12.93000031  51.49000168
C    18.40999985  12.64999962  51.12999725
C    18.12000084  11.98999977  49.88999939
C    19.19999886  11.52999973  49.15999985
C    20.53999901  11.85999966  49.45999908
C    21.59000015  11.51000023  48.56999969
C    22.88999939  11.89000034  48.86000061
C    23.13999939  12.65999985  50.01999664
C    22.15999985  12.94999981  50.93999863
C    20.81000137  12.56000042  50.68999863
C    16.68000031  11.94000053  49.65999985
C    15.92000008  12.53999901  50.68999863
C    14.53999996  12.64999962  50.68000031
C    24.50000000  13.28999996  50.21999741
H    25.06872177  12.73549652  50.96644211
H    19.89999962  13.55000019  52.36000061
H    18.88000107  10.93999958  48.29999924
H    21.40999985  11.00999928  47.62000275
H    23.68000031  11.63000011  48.15999985
H    22.39999962  13.60999966  51.77000046
H    14.04999924  13.27000046  51.42000198
H    24.99000168  13.48999977  49.26000214
H    24.25000000  14.27000046  50.63999939
S    13.47000027  10.88999939  47.34000397
C    10.77999973  10.71000004  48.20000076
C    12.07999992  11.06999969  48.43000031
C    12.43999958  11.72000027  49.65999985
C    11.47999954  12.15000057  50.54999924
C    10.14000034  11.78999996  50.31000137
C     9.11999989  12.09000015  51.25999832
C     7.78999996  11.92999935  50.91999817
C     7.40000010  11.35000038  49.68000031
C     8.38000011  10.92000008  48.81000137
C     9.76000023  11.05999947  49.13000107
C    13.86999989  12.01000023  49.62999725
C    14.61999989  11.56000042  48.52000427
C    16.01000023  11.43000031  48.54000092
C     5.97000027  11.00999928  49.36000061
H     5.58463573  11.59518242  48.52504349
H    10.43000031  10.39000034  47.22999954
H    11.84999943  12.69000053  51.43000031
H     9.38000011  12.53000069  52.21000290
H     7.09000015  12.11999989  51.72000122
H     8.13000011  10.47999954  47.84999847
H    16.48999977  10.85999966  47.75000000
H     5.42000008  11.00999928  50.31000137
H     5.98999977  10.00000000  48.92000198
