96

S    16.46999931  12.60000038  58.44999695
C    19.23999977  12.35000038  57.90999985
C    17.92000008  12.11999989  57.56000137
C    17.56000137  11.54999924  56.30000305
C    18.60999870  11.28000069  55.44000244
C    19.93999863  11.73999977  55.65999985
C    21.01000023  11.54999924  54.73999786
C    22.29999924  11.90000057  55.10000229
C    22.63000107  12.55000019  56.31999969
C    21.59000015  12.76999950  57.18000031
C    20.27000046  12.28999996  56.93999863
C    16.13000107  11.56000042  56.06999969
C    15.36999893  12.03999996  57.16999817
C    13.99000072  12.05000019  57.22000122
C    24.04999924  12.97999954  56.60999680
H    24.39182091  12.39605522  57.46455383
H    19.45999908  12.79999924  58.87000275
H    18.45000076  10.53999996  54.65999985
H    20.79000092  10.98999977  53.83999634
H    23.12000084  11.72999954  54.40999985
H    21.71999931  13.28999996  58.13000107
H    13.30999947  12.27000046  58.04000092
H    24.67000008  12.76000023  55.72999954
H    24.13999939  14.04999924  56.81999969
S    13.00000000  10.80000019  53.59000397
C    10.26999950  10.60999966  54.36999893
C    11.56000042  11.03000069  54.59000015
C    11.92000008  11.44999981  55.90999985
C    10.93999958  11.64999962  56.86999893
C     9.65999985  11.05999947  56.72999954
C     8.60000038  11.31000042  57.63999939
C     7.32999992  10.90000057  57.29999924
C     6.98999977  10.24000072  56.09000397
C     7.96999979  10.19000053  55.12000275
C     9.30000019  10.59999943  55.40999985
C    13.35999966  11.65999985  56.03000259
C    14.09000015  11.46000004  54.82999802
C    15.47999954  11.39000034  54.84000397
C     5.56999969   9.81000042  55.80999756
H     5.15252542  10.29115677  54.92551804
H    10.01999950  10.21000004  53.40000153
H    11.23000050  12.02000046  57.84999847
H     8.80000019  11.73999977  58.61000061
H     6.54999971  11.07999992  58.02999878
H     7.75000000  10.00000000  54.06999969
H    16.11999893  11.05000019  54.03999710
H     4.94000006   9.92999935  56.70000076
H     5.60999966   8.71999931  55.68999863
S    17.19000053  12.93000031  52.67000198
C    19.89999962  13.17999935  51.93999863
C    18.64999962  12.67000008  51.69000244
C    18.32999992  12.13999939  50.40000153
C    19.30999947  12.10999966  49.41999817
C    20.63999939  12.51999950  49.68000031
C    21.70999908  12.22000027  48.80000305
C    23.01000214  12.43000031  49.20000076
C    23.28000069  13.03999996  50.45000076
C    22.27999878  13.32999992  51.36000061
C    20.94000053  13.07000065  50.97999954
C    16.90000153  11.96000004  50.20999908
C    16.15999985  12.53000069  51.27999878
C    14.78000069  12.68000031  51.26999664
C    24.70000076  13.45999908  50.72999954
H    25.22037697  12.78992558  51.41433334
H    20.17000008  13.73000050  52.84000015
H    19.23999977  11.59999943  48.46000290
H    21.55999947  11.95000076  47.76000214
H    23.82999802  12.32999992  48.48999786
H    22.42000198  13.80000019  52.32999802
H    14.23999977  13.21000004  52.04000092
H    25.32999992  13.50000000  49.82999802
H    24.64999962  14.47999954  51.11999893
S    13.81000042  11.18000031  47.77999878
C    11.07999992  11.02000046  48.37999725
C    12.34000015  11.44999981  48.73000336
C    12.60000038  12.02000046  50.00999832
C    11.56999969  12.10000038  50.93999863
C    10.24000072  11.80999947  50.56999969
C     9.15999985  12.02000046  51.47999573
C     7.88000011  11.65999985  51.13999939
C     7.63000011  11.03999996  49.89999771
C     8.69000053  10.67000008  49.09999847
C    10.01000023  11.18000031  49.29999924
C    14.02999973  12.27000046  50.15999603
C    14.82999992  11.69999981  49.13000107
C    16.21000099  11.51000023  49.08000183
C     6.24000025  10.52999973  49.59000015
H     5.68043184  11.06831837  48.82501984
H    10.88999939  10.40999985  47.50000000
H    11.72999954  12.36999989  51.97999954
H     9.40999985  12.28999996  52.50999832
H     7.18999958  11.75000000  51.97999954
H     8.47999954  10.03999901  48.23999786
H    16.70999908  11.10000038  48.20999908
H     5.69000006  10.47999954  50.54000092
H     6.50000000   9.52000046  49.25000000
