96

S    16.65999985  11.64999962  58.34999847
C    19.38999939  11.77000046  57.77000046
C    18.12000084  11.46999931  57.36000061
C    17.75000000  11.17000008  56.00999832
C    18.76000023  11.19999981  55.06000137
C    20.09000015  11.40999985  55.48999786
C    21.11999893  11.46999931  54.51000214
C    22.44999886  11.72000027  54.77000427
C    22.81999969  12.06999969  56.10000229
C    21.81999969  12.13999939  57.02999878
C    20.45000076  11.82000065  56.81999969
C    16.31999969  11.21000099  55.77000046
C    15.57999992  11.49000072  56.95000076
C    14.19000053  11.59999943  56.98999786
C    24.26000214  12.41000080  56.43000031
H    24.60948944  11.88933372  57.32155228
H    19.59000015  11.94000053  58.82999802
H    18.55999947  11.05999947  54.00000000
H    20.72999954  11.30000019  53.50999832
H    23.19000053  11.79999924  53.99000168
H    22.13999939  12.55000019  57.98999786
H    13.59000015  11.80999947  57.87000275
H    24.92000198  12.46000099  55.56000137
H    24.17000008  13.45000076  56.77999878
S    13.07000065  10.95000076  53.25000000
C    10.39999962  10.39999962  54.06999969
C    11.64999962  10.93000031  54.31000137
C    11.98999977  11.42000008  55.61999893
C    10.98999977  11.56000042  56.55000305
C     9.64999962  11.18999958  56.27999878
C     8.60000038  11.51999950  57.18000031
C     7.31999969  11.10000038  56.91999817
C     7.03999996  10.38000011  55.72000122
C     8.03999996  10.07999992  54.82999802
C     9.35999966  10.59000015  55.00999832
C    13.43000031  11.43000031  55.81999969
C    14.15999985  11.28000069  54.61000061
C    15.53999996  11.14999962  54.59999847
C     5.56999969  10.11999989  55.44000244
H     5.16968393  10.71332550  54.61792374
H    10.31999969   9.77999973  53.16999817
H    11.18000031  11.87000084  57.57999802
H     8.89999962  12.07999992  58.06000137
H     6.53999996  11.31000042  57.63999939
H     7.96000004   9.50000000  53.92000198
H    16.01000023  10.95999908  53.63999939
H     4.92999983  10.29999924  56.31000137
H     5.55999994   9.06999969  55.10000229
S    17.38999939  12.77999973  52.27000427
C    20.12000084  13.02000046  51.59000015
C    18.84000015  12.61999989  51.26999664
C    18.51000023  12.10000038  49.98000336
C    19.50000000  11.95000076  49.02999878
C    20.82999992  12.35000038  49.34000015
C    21.88999939  12.18999958  48.40000153
C    23.18000031  12.51999950  48.72000122
C    23.42000008  13.02000046  50.01999664
C    22.46999931  13.27000046  50.97999954
C    21.14999962  12.89999962  50.63000107
C    17.07999992  11.87999916  49.75999832
C    16.36000061  12.31999969  50.90000153
C    15.01000023  12.64999962  50.86999893
C    24.84999847  13.40999985  50.34999847
H    25.20694160  12.86031055  51.22093582
H    20.35000038  13.31999969  52.61000061
H    19.27999878  11.56999969  48.04000092
H    21.67000008  11.49000072  47.60000229
H    23.88999939  12.20000076  47.95999908
H    22.82999992  13.60999966  51.95000076
H    14.63999939  13.10999966  51.77999878
H    25.39999962  13.22000027  49.41999817
H    24.90999985  14.50000000  50.48999786
S    13.86999989  11.36000061  47.30999756
C    11.14999962  11.44000053  48.04999924
C    12.46000099  11.78999996  48.29999924
C    12.81999969  12.38000011  49.55999756
C    11.84999943  12.56999969  50.52000046
C    10.48999977  12.20999908  50.33000183
C     9.48999977  12.30999947  51.33999634
C     8.21000004  11.94000053  51.00000000
C     7.82999992  11.36000061  49.75999832
C     8.82000065  11.25000000  48.81000137
C    10.17000008  11.64000034  49.05000305
C    14.27000046  12.30999947  49.72999954
C    14.96000099  11.68000031  48.67000198
C    16.34000015  11.51999950  48.62999725
C     6.40999985  10.90999985  49.54999924
H     5.77923965  11.63289356  49.03263474
H    10.80000019  10.88999939  47.18000031
H    12.22000027  12.88000011  51.49000168
H     9.68000031  12.63000011  52.36000061
H     7.42999983  12.20000076  51.70999908
H     8.55000019  10.95000076  47.80000305
H    16.82999992  11.42000008  47.65999603
H     6.01000023  10.62999916  50.52999878
H     6.24000025  10.01000023  48.94000244
