96

S    16.79999924  12.51000023  58.54000092
C    19.45999908  12.74000072  57.91999817
C    18.22000122  12.30999947  57.50000000
C    17.90999985  11.80999947  56.19999695
C    18.93000031  11.61999893  55.27999878
C    20.20999908  12.05000019  55.70000076
C    21.28000069  11.82000065  54.79000092
C    22.57999802  12.01000023  55.20999908
C    22.92000008  12.65999985  56.42000198
C    21.87000084  12.93000031  57.27000427
C    20.52999878  12.53000069  57.02000046
C    16.46999931  11.59000015  56.09000397
C    15.73999977  11.90000057  57.25999832
C    14.34999943  11.97000027  57.36000061
C    24.34000015  13.10999966  56.65999985
H    24.83081436  12.51248741  57.42823029
H    19.68000031  13.30999947  58.81999969
H    18.84000015  11.19999981  54.29000092
H    21.07000160  11.32999992  53.83999634
H    23.36000061  11.79999924  54.47999954
H    22.13999939  13.48999977  58.15999985
H    13.86000061  12.34000015  58.25000000
H    24.93999863  13.10999966  55.73999786
H    24.34999847  14.14000034  57.02000046
S    13.26000023  11.05999947  53.68000031
C    10.53999996  11.07999992  54.29999924
C    11.84000015  11.26999950  54.71000290
C    12.18000031  11.63000011  56.05999756
C    11.19999981  11.84999943  57.01000214
C     9.85999966  11.59000015  56.65000153
C     8.85000038  11.69000053  57.64999771
C     7.53999996  11.54000092  57.27000427
C     7.20000029  11.18000031  55.93999863
C     8.17000008  11.05999947  54.97000122
C     9.53999996  11.30000019  55.27000046
C    13.63000011  11.63000011  56.20999908
C    14.35999966  11.23000050  55.06000137
C    15.73999977  11.23999977  54.93999863
C     5.78000021  10.78999996  55.59000015
H     5.34360409  11.37663174  54.78159332
H    10.29999924  10.47999954  53.41999817
H    11.46000004  11.97999954  58.04999924
H     9.17000008  12.07999992  58.61000061
H     6.77999973  11.49000072  58.04000092
H     7.96999979  10.75000000  53.94000244
H    16.31000137  10.93999958  54.06000137
H     5.21000004  10.97000027  56.51000214
H     5.66999960   9.72999954  55.34000015
S    13.19000053   8.97999954  50.84999847
C    10.57000065   8.40999985  51.50000000
C    11.90000057   8.23000050  51.79999924
C    12.41000080   7.63000011  53.01000214
C    11.44999981   7.07999992  53.82999802
C    10.06999969   7.26999998  53.61999893
C     9.11999989   6.90000010  54.61000061
C     7.76999998   6.97000027  54.34999847
C     7.30000019   7.68000031  53.22000122
C     8.21000004   8.15999985  52.29999924
C     9.61000061   7.95000029  52.43000031
C    13.85000038   7.76999998  53.11999893
C    14.42000008   8.48999977  52.04000092
C    15.77999973   8.80000019  52.00000000
C     5.80999947   7.59999990  52.94000244
H     5.58292246   7.81998158  51.89686203
H    10.21000004   9.15000057  50.77999878
H    11.77999973   6.50000000  54.68999863
H     9.44999981   6.35999966  55.48999786
H     6.94999981   6.57999992  54.95999908
H     7.86999989   8.64000034  51.38999939
H    16.10000038   9.47000027  51.20999908
H     5.40999985   6.61000013  53.20000076
H     5.28999996   8.30999947  53.57999802
S    17.28000069   7.36999989  55.35999680
C    19.89999962   7.86999989  54.56999969
C    18.55999947   8.13000011  54.38999939
C    18.02999878   8.71000004  53.18999863
C    18.94000053   9.19999981  52.28000259
C    20.32999992   9.11000061  52.52999878
C    21.31000137   9.63000011  51.63999939
C    22.65999985   9.35999966  51.73999786
C    23.12999916   8.56999969  52.83000183
C    22.23999977   8.11999989  53.77999878
C    20.84000015   8.32999992  53.61999893
C    16.60000038   8.46000004  53.09000015
C    16.03000069   7.75000000  54.16999817
C    14.70999908   7.31999969  54.13000107
C    24.56000137   8.14999962  53.06000137
H    25.07670021   8.99229050  53.52007294
H    20.30999947   7.30999994  55.40999985
H    18.60999870   9.76000023  51.40999603
H    21.00000000  10.03000069  50.66999817
H    23.36000061   9.59999943  50.94999695
H    22.63000107   7.60999966  54.65000153
H    14.34999943   6.75000000  54.98000336
H    25.12000084   8.03999996  52.11999893
H    24.51999855   7.25000000  53.68000031
