96

S    17.05999947  12.10999966  58.56999969
C    19.73999977  12.35999966  57.81999969
C    18.46999931  11.92000008  57.50999832
C    18.13999939  11.40999985  56.20999908
C    19.13999939  11.31000042  55.26000214
C    20.46999931  11.69999981  55.56000137
C    21.53000069  11.57999992  54.61999893
C    22.81999969  11.90000057  54.97000122
C    23.11000061  12.38000011  56.27999878
C    22.09000015  12.71000004  57.14000320
C    20.76999855  12.23999977  56.86000061
C    16.69999886  11.39000034  56.06999969
C    15.95999908  11.72999954  57.22999954
C    14.57999992  11.92000008  57.28000259
C    24.54000092  12.74000072  56.59000015
H    24.92999458  12.21528149  57.46216583
H    19.97999954  12.79999924  58.77999878
H    18.84000015  10.88000107  54.31000137
H    21.35000038  11.11999989  53.64999771
H    23.64000130  11.64000034  54.31000137
H    22.39000130  13.25000000  58.04000092
H    14.02999973  12.32999992  58.11999893
H    25.06000137  12.61000061  55.63999939
H    24.54000092  13.80000019  56.88999939
S    13.67000008  10.75000000  53.54000092
C    10.93999958  10.77999973  54.15000153
C    12.22000027  11.14999962  54.47999954
C    12.53000069  11.61999893  55.79000092
C    11.52999973  11.90000057  56.70000076
C    10.24000072  11.40999985  56.38999939
C     9.18000031  11.44999981  57.35000229
C     7.90000010  11.06999969  57.02000046
C     7.51999950  10.70000076  55.70000076
C     8.53999996  10.55999947  54.79000092
C     9.89000034  10.90000057  55.10000229
C    13.96000004  11.59000015  56.06999969
C    14.68999958  11.10999966  54.94999695
C    16.06999969  11.05000019  54.86000061
C     6.11999989  10.32999992  55.27999878
H     5.61009932  10.92488480  54.52222824
H    10.77000046  10.10000038  53.30999756
H    11.73999977  12.30999947  57.69000244
H     9.52000046  11.76000023  58.33000183
H     7.05999947  11.21000099  57.70000076
H     8.30000019  10.18000031  53.80000305
H    16.64999962  10.70000076  54.01000214
H     5.46999979  10.44999981  56.14999771
H     6.12999964   9.26999950  55.00000000
S    13.89999962   8.90999985  50.75000000
C    11.26000023   8.38000011  51.52000046
C    12.61000061   8.23999977  51.76000214
C    13.09000015   7.55000019  52.91999817
C    12.18000031   7.00999975  53.81000137
C    10.78999996   7.11999989  53.54999924
C     9.85999966   6.57000017  54.47000122
C     8.52000046   6.70000029  54.15000153
C     8.02999973   7.20000029  52.91999817
C     8.93000031   7.65999985  51.97999954
C    10.29999924   7.73999977  52.35000229
C    14.52999973   7.69999981  53.04000092
C    15.11000061   8.34000015  51.91999817
C    16.46999931   8.63000011  51.93999863
C     6.56000042   7.48000050  52.70000076
H     6.20431566   7.31638527  51.68273926
H    10.93000031   8.89999962  50.63000107
H    12.48000050   6.47000027  54.71000290
H    10.06000042   6.25000000  55.48999786
H     7.86999989   6.21000004  54.86999893
H     8.60000038   8.07999992  51.04000092
H    16.94000053   9.18000031  51.12999725
H     6.02999973   6.84000015  53.41999817
H     6.21999979   8.50000000  52.90999985
S    17.80999947   7.00999975  55.38000107
C    20.48000145   7.50000000  54.64000320
C    19.13999939   7.57000017  54.34999847
C    18.71000099   8.15999985  53.11999893
C    19.62000084   8.71999931  52.23999786
C    21.01000023   8.56999969  52.49000168
C    22.01000023   9.02000046  51.58000183
C    23.34000015   8.92000008  51.90000153
C    23.71999931   8.53999996  53.20999908
C    22.81999969   8.03999996  54.13000107
C    21.45000076   8.03999996  53.75999832
C    17.26000023   8.14999962  52.98999786
C    16.68000031   7.46999979  54.09000015
C    15.29999924   7.30000019  54.13999939
C    25.17999840   8.64999962  53.56999969
H    25.34307480   8.64291000  54.64770889
H    20.84000015   7.04999971  55.56000137
H    19.26000023   9.19000053  51.32999802
H    21.71999931   9.51000023  50.65999985
H    24.15999985   9.09000015  51.19999695
H    23.23999786   7.86000013  55.12000275
H    14.77000046   6.98999977  55.02999878
H    25.58000183   9.61000061  53.22000122
H    25.79999924   7.90000010  53.06999969
