96

S    16.65999985  11.92999935  58.48999786
C    19.37999916  12.22000027  57.90000153
C    18.12999916  11.79999924  57.50999832
C    17.79999924  11.46999931  56.16000366
C    18.79999924  11.57999992  55.20999908
C    20.12000084  11.92000008  55.59000015
C    21.21999931  11.76000023  54.71000290
C    22.46999931  12.22000027  55.06999969
C    22.73999977  12.76000023  56.35000229
C    21.77000046  12.61999989  57.31999969
C    20.43999863  12.23999977  56.95000076
C    16.36000061  11.38000011  55.90999985
C    15.60999966  11.59000015  57.09999847
C    14.22999954  11.72000027  57.06999969
C    24.05999947  13.36999989  56.77000046
H    24.70973015  12.57746983  57.14127731
H    19.57999992  12.64000034  58.88000107
H    18.71000099  11.17000008  54.20999908
H    21.05999947  11.21000099  53.77999878
H    23.29000092  12.11999989  54.36000061
H    21.94999886  12.94000053  58.34000015
H    13.73999977  11.90999985  58.02999878
H    24.56999969  13.71000099  55.86000061
H    23.85000038  14.25000000  57.38999939
S    13.14000034  10.82999992  53.40999985
C    10.42000008  10.76000023  54.06999969
C    11.71000004  11.06999969  54.43000031
C    12.05000019  11.49000072  55.75000000
C    11.03999996  11.69000053  56.68000031
C     9.72999954  11.21999931  56.43000031
C     8.69999981  11.18000031  57.42000198
C     7.44999981  10.71000004  57.09999847
C     7.23999977  10.14000034  55.81999969
C     8.15999985  10.19999981  54.79999924
C     9.44999981  10.72000027  55.11000061
C    13.50000000  11.59999943  55.89000320
C    14.25000000  11.23999977  54.72999954
C    15.62999916  11.13999939  54.73999786
C     5.86000013   9.59000015  55.54000092
H     5.36237907  10.03785801  54.67982864
H    10.21000004  10.43000031  53.06000137
H    11.28999901  12.01000023  57.68000031
H     8.86999989  11.51999950  58.43999863
H     6.61000013  10.71000004  57.78999710
H     8.05000019   9.89999962  53.76999664
H    15.85999966  10.72999954  53.75999832
H     5.21000004   9.72999954  56.42000198
H     5.96000004   8.51000023  55.38000107
S    13.40000057   8.61999989  50.68999863
C    10.71000004   7.90000010  51.37000275
C    12.06999969   7.88000011  51.59999847
C    12.64000034   7.22000027  52.72999573
C    11.77000046   6.70000029  53.67000198
C    10.36999893   6.72999954  53.48999786
C     9.46000004   6.21000004  54.45000076
C     8.14000034   6.05000019  54.09999847
C     7.57999992   6.43000031  52.84999847
C     8.43999958   7.07999992  51.98999786
C     9.82999992   7.18999958  52.23999786
C    14.04000092   7.53999996  52.97999954
C    14.61999989   8.30000019  51.93999863
C    15.97000027   8.64999962  51.88999939
C     6.12999964   6.14000034  52.56000137
H     5.76730108   6.63071012  51.65681076
H    10.34000015   8.51000023  50.54999924
H    12.25000000   6.15999985  54.47999954
H     9.80000019   5.88000011  55.43000031
H     7.53999996   5.52999973  54.84000397
H     8.13000011   7.34000015  50.97999954
H    16.28000069   9.31999969  51.10000229
H     5.89999962   5.07000017  52.56000137
H     5.61999989   6.50000000  53.46000290
S    17.42000008   7.16000032  55.28999710
C    20.07999802   7.67000008  54.54000092
C    18.72999954   7.76999998  54.26000214
C    18.27000046   8.36000061  53.04000092
C    19.20999908   8.96000004  52.22000122
C    20.59999847   8.89000034  52.44999695
C    21.57999992   9.51000023  51.63000107
C    22.89999962   9.55999947  52.02000046
C    23.29000092   8.93999958  53.22999954
C    22.42000198   8.19000053  53.97999573
C    21.02999878   8.23000050  53.66000366
C    16.81999969   8.31999969  52.95000076
C    16.23999977   7.64999962  54.06000137
C    14.91000080   7.25000000  54.05000305
C    24.57999992   9.42000008  53.87000275
H    25.07742119   8.72361183  54.54507065
H    20.32999992   7.11000013  55.44000244
H    18.89000130   9.44000053  51.30000305
H    21.25999832  10.06999969  50.75000000
H    23.52000046  10.31000042  51.53999710
H    22.79000092   7.71000004  54.88999939
H    14.52999973   6.76000023  54.93999863
H    24.40000153  10.34999943  54.43000031
H    25.27000046   9.50000000  53.02000046
