96

S    16.88999939  12.38999939  58.48999786
C    19.57999992  12.42000008  57.75000000
C    18.29000092  12.02999973  57.47000122
C    17.89999962  11.36999989  56.25999832
C    18.85000038  11.21999931  55.26000214
C    20.13999939  11.75000000  55.47000122
C    21.14999962  11.59999943  54.47999954
C    22.43999863  12.02999973  54.71000290
C    22.80999947  12.63000011  55.93999863
C    21.87999916  12.79000092  56.93999863
C    20.56999969  12.27000046  56.73999786
C    16.46000099  11.35000038  56.10000229
C    15.76000023  11.87999916  57.21000290
C    14.37000084  11.87999916  57.27000427
C    24.23000145  13.03999996  56.25000000
H    24.65577316  12.43682194  57.05186844
H    19.71999931  12.89999962  58.70999908
H    18.56999969  10.92000008  54.25000000
H    20.84000015  11.10000038  53.55999756
H    23.13999939  12.00000000  53.88999939
H    22.13999939  13.27000046  57.88000107
H    13.86000061  12.35999966  58.09000015
H    24.84000015  12.97000027  55.34000015
H    24.20000076  14.09000015  56.56999969
S    13.32999992  10.53999996  53.62999725
C    10.65999985  10.62999916  54.25000000
C    11.92999935  11.05000019  54.59000015
C    12.23000050  11.51000023  55.91999817
C    11.18000031  11.79999924  56.77000046
C     9.85000038  11.52999973  56.36000061
C     8.75000000  11.72000027  57.25000000
C     7.46000004  11.33999920  56.95999908
C     7.22000027  10.65999985  55.73999786
C     8.23999977  10.43000031  54.84000397
C     9.56999969  10.86999989  55.11000061
C    13.67000008  11.51999950  56.11000061
C    14.35999966  10.97000027  55.00000000
C    15.75000000  10.90000057  54.97000122
C     5.82000017  10.21000004  55.38000107
H     5.30101967  10.94225979  54.76148987
H    10.50000000   9.94000053  53.43000031
H    11.39999962  12.20000076  57.76000214
H     9.07999992  12.17000008  58.18000031
H     6.63999987  11.63000011  57.61000061
H     8.05999947   9.85000038  53.94000244
H    16.34000015  10.44000053  54.18000031
H     5.22000027  10.21999931  56.30000305
H     5.82999992   9.19000053  54.98000336
S    17.04000092  12.67000008  52.18000031
C    19.70999908  12.53999901  51.50000000
C    18.40999985  12.30999947  51.11000061
C    18.00000000  11.87000084  49.80999756
C    19.01000023  11.63000011  48.89999771
C    20.32999992  12.07999992  49.13999939
C    21.35000038  11.84999943  48.16999817
C    22.59000015  12.41000080  48.43000031
C    22.89999962  13.09999943  49.62999725
C    21.98999786  13.02000046  50.65999985
C    20.66999817  12.55000019  50.45999908
C    16.55999947  11.71000004  49.78000259
C    15.88000107  12.09000015  50.97000122
C    14.51000023  12.18000031  51.16000366
C    24.34000015  13.47000027  49.88999939
H    24.78113556  12.84387398  50.66554260
H    20.02000046  12.84999943  52.49000168
H    18.78999901  11.18999958  47.93000031
H    21.18999863  11.39999962  47.18999863
H    23.38999939  12.18999958  47.72999573
H    22.37999916  13.26000023  51.65000153
H    14.04999924  12.56000042  52.05999756
H    24.82999992  13.35999966  48.92000198
H    24.37999916  14.55000019  50.07999802
S    13.27999973  11.50000000  47.43999863
C    10.52999973  11.77000046  48.09999847
C    11.85999966  11.82000065  48.44999695
C    12.30000019  12.13999939  49.78000259
C    11.33999920  12.30000019  50.77000046
C     9.96000004  12.23000050  50.48999786
C     8.93999958  12.11999989  51.47999573
C     7.63000011  11.97000027  51.11000061
C     7.26000023  11.72000027  49.77000427
C     8.22000027  11.76000023  48.77999878
C     9.57999992  11.98999977  49.12000275
C    13.71999931  11.97000027  50.01999664
C    14.40000057  11.65999985  48.81000137
C    15.77999973  11.57999992  48.62999725
C     5.86000013  11.30000019  49.38000107
H     5.40517807  12.02487278  48.70487213
H    10.14999962  11.43000031  47.14000320
H    11.72000027  12.23000050  51.77999878
H     9.36999989  12.05999947  52.48000336
H     6.85999966  11.92999935  51.88000107
H     7.85000038  11.46000004  47.80000305
H    16.15999985  11.54000092  47.61000061
H     5.19999981  11.23000050  50.25000000
H     5.93999958  10.31000042  48.90999603
