96

S    16.79000092  12.46000099  58.25000000
C    19.43000031  12.35000038  57.64999771
C    18.17000008  11.97999954  57.25000000
C    17.76000023  11.39999962  56.00000000
C    18.82999992  11.14999962  55.15999603
C    20.15999985  11.47999954  55.50000000
C    21.24000168  11.54000092  54.56999969
C    22.56999969  11.79999924  54.81999969
C    22.86999893  12.25999928  56.12999725
C    21.87000084  12.36999989  57.05999756
C    20.51000214  12.06999969  56.77000046
C    16.31999969  11.44999981  55.84000015
C    15.65999985  12.00000000  56.97000122
C    14.27000046  12.02999973  57.04999924
C    24.30000114  12.64999962  56.45000076
H    24.76840019  12.03256416  57.21646881
H    19.62000084  12.65999985  58.68000031
H    18.60000038  10.76000023  54.18000031
H    20.90999985  11.52999973  53.53000259
H    23.32999992  11.92000008  54.06000137
H    22.03000069  12.84999943  58.02000046
H    13.81999969  12.35999966  57.97999954
H    24.94999886  12.69000053  55.56999969
H    24.27000046  13.71000099  56.76000214
S    13.01000023  10.59999943  53.57999802
C    10.27999973  10.60999966  54.40000153
C    11.61000061  10.78999996  54.66999817
C    12.05000019  11.23000050  55.96000290
C    11.11999989  11.52999973  56.93000031
C     9.75000000  11.23000050  56.73999786
C     8.76000023  11.46000004  57.74000168
C     7.42999983  11.26999950  57.43999863
C     7.00000000  10.72999954  56.19999695
C     7.94000053  10.60999966  55.20000076
C     9.32999992  10.84000015  55.41999817
C    13.48000050  11.51000023  56.02000427
C    14.14999962  11.06999969  54.85000229
C    15.53999996  11.03999996  54.75000000
C     5.59999990  10.21000004  55.97000122
H     5.00345135  10.73553181  55.22431564
H     9.96999931  10.40999985  53.36999893
H    11.36000061  11.94000053  57.90999985
H     9.11999989  11.87000084  58.68000031
H     6.70000029  11.40999985  58.22999954
H     7.57000017  10.36999893  54.20999908
H    15.88000107  10.62000084  53.81000137
H     5.05999994  10.43000031  56.90000153
H     5.63000011   9.11999989  55.89000320
S    13.09999943   8.42000008  50.94999695
C    10.48999977   8.02999973  51.73999786
C    11.82000065   7.78999996  52.00000000
C    12.35000038   7.13000011  53.15999985
C    11.43000031   6.58999968  54.03999710
C    10.06999969   6.90000010  53.83999634
C     9.06999969   6.40999985  54.72000122
C     7.73000002   6.52999973  54.43000031
C     7.26999998   7.17999983  53.25000000
C     8.15999985   7.86999989  52.44999695
C     9.53999996   7.65999985  52.72999573
C    13.78000069   7.32999992  53.27000046
C    14.34000015   7.97999954  52.14000320
C    15.67999935   8.32999992  51.95000076
C     5.86000013   6.86999989  52.81000137
H     5.50364733   7.36176682  51.90486145
H    10.13000011   8.52999973  50.84999847
H    11.59000015   6.17999983  55.02999878
H     9.26999950   5.73000002  55.54999924
H     6.94999981   6.01999998  54.98000336
H     7.96999979   7.95000029  51.38999939
H    16.06999969   8.89000034  51.11000061
H     5.96000004   5.78000021  52.70999908
H     5.18000031   7.11999989  53.62999725
S    17.14999962   7.30000019  55.54999924
C    19.77000046   7.86999989  54.86000061
C    18.44000053   7.96999979  54.54000092
C    17.88999939   8.43999958  53.29999924
C    18.78000069   8.97000027  52.38999939
C    20.15000153   9.06000042  52.72999573
C    21.02999878   9.56999969  51.72999954
C    22.39000130   9.39999962  51.90999985
C    22.92000008   8.73999977  53.04999924
C    22.07999992   8.30999947  54.05000305
C    20.66999817   8.45000076  53.92000198
C    16.50000000   8.10000038  53.06000137
C    15.98000050   7.49000025  54.22999954
C    14.67000008   7.00999975  54.31000137
C    24.37999916   8.36000061  53.13999939
H    24.83333015   8.86999702  53.98999405
H    20.13999939   7.42000008  55.77999878
H    18.46999931   9.30999947  51.39999771
H    20.55999947   9.89000034  50.79999924
H    23.02999878   9.75000000  51.11000061
H    22.47999954   7.79999971  54.93000031
H    14.39000034   6.44999981  55.19000244
H    24.96999931   8.69999981  52.28000259
H    24.51000023   7.27999973  53.22000122
