96

S    17.05999947  12.10999966  58.56999969
C    19.73999977  12.35999966  57.81999969
C    18.46999931  11.92000008  57.50999832
C    18.13999939  11.40999985  56.20999908
C    19.13999939  11.31000042  55.26000214
C    20.46999931  11.69999981  55.56000137
C    21.53000069  11.57999992  54.61999893
C    22.81999969  11.90000057  54.97000122
C    23.11000061  12.38000011  56.27999878
C    22.09000015  12.71000004  57.14000320
C    20.76999855  12.23999977  56.86000061
C    16.69999886  11.39000034  56.06999969
C    15.95999908  11.72999954  57.22999954
C    14.57999992  11.92000008  57.28000259
C    24.54000092  12.74000072  56.59000015
H    24.92999458  12.21528149  57.46216583
H    19.97999954  12.79999924  58.77999878
H    18.84000015  10.88000107  54.31000137
H    21.35000038  11.11999989  53.64999771
H    23.64000130  11.64000034  54.31000137
H    22.39000130  13.25000000  58.04000092
H    14.02999973  12.32999992  58.11999893
H    25.06000137  12.61000061  55.63999939
H    24.54000092  13.80000019  56.88999939
S    13.67000008  10.75000000  53.54000092
C    10.93999958  10.77999973  54.15000153
C    12.22000027  11.14999962  54.47999954
C    12.53000069  11.61999893  55.79000092
C    11.52999973  11.90000057  56.70000076
C    10.24000072  11.40999985  56.38999939
C     9.18000031  11.44999981  57.35000229
C     7.90000010  11.06999969  57.02000046
C     7.51999950  10.70000076  55.70000076
C     8.53999996  10.55999947  54.79000092
C     9.89000034  10.90000057  55.10000229
C    13.96000004  11.59000015  56.06999969
C    14.68999958  11.10999966  54.94999695
C    16.06999969  11.05000019  54.86000061
C     6.11999989  10.32999992  55.27999878
H     5.61009932  10.92488480  54.52222824
H    10.77000046  10.10000038  53.30999756
H    11.73999977  12.30999947  57.69000244
H     9.52000046  11.76000023  58.33000183
H     7.05999947  11.21000099  57.70000076
H     8.30000019  10.18000031  53.80000305
H    16.64999962  10.70000076  54.01000214
H     5.46999979  10.44999981  56.14999771
H     6.12999964   9.26999950  55.00000000
S    17.47999954  12.65999985  52.51999664
C    20.17999840  12.94000053  51.83000183
C    18.89000130  12.63000011  51.45000076
C    18.60000038  12.27000046  50.10000229
C    19.64999962  12.03999996  49.22000122
C    20.96999931  12.30999947  49.64000320
C    22.03000069  12.00000000  48.75000000
C    23.31000137  12.41000080  49.02999878
C    23.61999893  13.07999992  50.24000168
C    22.62000084  13.27000046  51.16000366
C    21.28000069  12.84999943  50.93999863
C    17.17000008  12.00000000  49.99000168
C    16.40999985  12.35000038  51.12999725
C    15.03000069  12.51999950  51.11999893
C    25.03000069  13.48000050  50.61000061
H    25.51149368  12.82857037  51.33931732
H    20.43000031  13.12000084  52.88000107
H    19.55000114  11.44000053  48.31999969
H    21.80999947  11.65999985  47.74000168
H    24.07999992  12.17000008  48.29000092
H    22.77000046  13.71000099  52.14000320
H    14.52000046  12.84000015  52.02999878
H    25.52999878  13.55999947  49.62999725
H    25.13999939  14.52000046  50.90999985
S    14.17000008  11.35000038  47.42000198
C    11.39000034  11.39999962  47.88999939
C    12.67000008  11.65999985  48.30999756
C    12.94999981  12.18999958  49.61000061
C    11.97000027  12.35999966  50.56999969
C    10.62999916  12.09000015  50.17000198
C     9.57999992  12.13999939  51.12999725
C     8.36000061  11.61999893  50.77000046
C     8.03999996  11.26999950  49.43000031
C     9.03999996  11.21999931  48.48999786
C    10.36000061  11.59999943  48.85000229
C    14.37999916  12.23999977  49.92000198
C    15.14999962  11.71000004  48.86000061
C    16.50000000  11.39999962  48.92000198
C     6.75000000  10.55999947  49.08000183
H     6.01364183  11.21056843  48.60815811
H    11.23999977  10.95000076  46.90999985
H    12.25000000  12.41000080  51.60999680
H     9.94999981  12.35000038  52.12999725
H     7.63000011  11.23000050  51.47999573
H     8.82000065  10.81999969  47.50000000
H    16.95999908  10.93999958  48.04000092
H     6.37000036  10.01000023  49.94999695
H     6.91999960   9.72000027  48.39000320
