96

S    17.20000076  12.46000099  58.55999756
C    19.86999893  12.18000031  57.90999985
C    18.55999947  11.84000015  57.62000275
C    18.18000031  11.31999969  56.33999634
C    19.11999893  11.28000069  55.31999969
C    20.48000145  11.50000000  55.61999893
C    21.53000069  11.36999989  54.65999985
C    22.85000038  11.61999893  54.93999863
C    23.25000000  12.06999969  56.22000122
C    22.25000000  12.18999958  57.15999985
C    20.86999893  11.97000027  56.91999817
C    16.72999954  11.26999950  56.26999664
C    16.03999901  11.90000057  57.32999802
C    14.67000008  12.07999992  57.30999756
C    24.65999985  12.53999901  56.52999878
H    25.07426453  12.03288174  57.40138626
H    20.15999985  12.53000069  58.88999939
H    18.86999893  11.26999950  54.26000214
H    21.24000168  11.07999992  53.64999771
H    23.61999893  11.44999981  54.20000076
H    22.46999931  12.61999989  58.13999939
H    14.15999985  12.38999939  58.22000122
H    25.17000008  12.31999969  55.59000015
H    24.77000046  13.63000011  56.58000183
S    13.60999966  10.48999977  53.82999802
C    10.85999966  10.57000065  54.36999893
C    12.13000107  10.93999958  54.71000290
C    12.48000050  11.64000034  55.91999817
C    11.43000031  11.97999954  56.73999786
C    10.08999920  11.59000015  56.49000168
C     9.03999996  11.78999996  57.43999863
C     7.76000023  11.36999989  57.15999985
C     7.48000050  10.72999954  55.93000031
C     8.47000027  10.51000023  55.00000000
C     9.81000042  10.88999939  55.26000214
C    13.90999985  11.75000000  56.17000198
C    14.63999939  11.13999939  55.12000275
C    16.01000023  10.92000008  55.12000275
C     6.01999998  10.39000034  55.68000031
H     5.54872656  11.02550602  54.93024445
H    10.72000027  10.06999969  53.40999985
H    11.65999985  12.31999969  57.74000168
H     9.28999996  12.25999928  58.37999725
H     6.97000027  11.73999977  57.81000137
H     8.23000050  10.03999901  54.05000305
H    16.60000038  10.53999996  54.29000092
H     5.46000004  10.52000046  56.60999680
H     5.98999977   9.30999947  55.45999908
S    13.38999939   8.65999985  50.72000122
C    10.72000027   8.38999939  51.43000031
C    12.03999996   8.17000008  51.75000000
C    12.42000008   7.36000013  52.87000275
C    11.44000053   7.00999975  53.77999878
C    10.06999969   7.23999977  53.53000259
C     9.04999924   6.86999989  54.45000076
C     7.73000002   7.13999987  54.15999985
C     7.37999964   7.81000042  52.95999908
C     8.32999992   8.17000008  52.04000092
C     9.71000004   7.88000011  52.29000092
C    13.86999989   7.30999994  53.00000000
C    14.50000000   8.01999950  51.95000076
C    15.80999947   8.48999977  51.98999786
C     5.97000027   8.17000008  52.52999878
H     5.67265797   7.66734982  51.60965729
H    10.40999985   8.90999985  50.52999878
H    11.73999977   6.63000011  54.75000000
H     9.35000038   6.28999996  55.31000137
H     6.98999977   6.86999989  54.91000366
H     8.02999973   8.65999985  51.11000061
H    16.06999969   9.26999950  51.29000092
H     5.29999971   7.95000029  53.36999893
H     5.92999983   9.26000023  52.44999695
S    17.18000031   7.02000046  55.43000031
C    19.82999992   7.37999964  54.52999878
C    18.48999977   7.62000036  54.38999939
C    18.01000023   8.26000023  53.20000076
C    18.95000076   8.78999996  52.32999802
C    20.34000015   8.64999962  52.49000168
C    21.32999802   9.13999939  51.59000015
C    22.67000008   8.97000027  51.84999847
C    23.11000061   8.36000061  53.04999924
C    22.19000053   7.82999992  53.93000031
C    20.79999924   7.92999983  53.64999771
C    16.57999992   8.01000023  53.04999924
C    16.02000046   7.25000000  54.10999680
C    14.67000008   6.94999981  54.09000015
C    24.59000015   8.07999992  53.18000031
H    24.91102791   8.32255459  54.19301987
H    20.10999870   6.72999954  55.35999680
H    18.53999901   9.22000027  51.42000198
H    21.07000160   9.61999989  50.63999939
H    23.38999939   9.13999939  51.05999756
H    22.47999954   7.16000032  54.73999786
H    14.25000000   6.39999962  54.93000031
H    25.15000153   8.52000046  52.34000397
H    24.61000061   7.00000000  53.00000000
