96

S    16.67000008  12.64999962  58.40999985
C    19.44000053  12.48999977  57.90999985
C    18.15000153  12.18000031  57.56000137
C    17.85000038  11.68000031  56.25000000
C    18.88000107  11.50000000  55.34000015
C    20.22000122  11.87000084  55.59000015
C    21.30000114  11.80999947  54.65999985
C    22.55000114  12.28999996  54.98000336
C    22.79000092  12.86000061  56.25999832
C    21.77999878  12.81000042  57.18999863
C    20.45000076  12.38000011  56.91999817
C    16.42000008  11.67000008  55.97999954
C    15.64000034  12.15000057  57.05999756
C    14.25000000  12.18999958  57.15000153
C    24.18000031  13.32999992  56.63000107
H    24.81295776  12.53346729  57.02115631
H    19.62000084  12.82999992  58.93000031
H    18.79999924  11.10999966  54.33000183
H    21.02999878  11.57999992  53.62999725
H    23.31000137  12.36999989  54.20999908
H    21.94999886  13.12000084  58.22000122
H    13.71999931  12.64999962  57.97999954
H    24.56999969  13.76999950  55.70000076
H    24.09000015  14.01000023  57.48000336
S    13.22999954  10.71000004  53.60000229
C    10.47999954  10.75000000  54.22999954
C    11.78999996  10.97000027  54.59999847
C    12.10999966  11.44000053  55.90999985
C    11.10000038  11.64999962  56.83000183
C     9.75000000  11.33999920  56.53999710
C     8.67000008  11.43000031  57.47000122
C     7.40000010  11.09000015  57.06999969
C     7.13999987  10.55999947  55.77000046
C     8.14000034  10.52999973  54.82999802
C     9.44999981  10.97000027  55.18000031
C    13.53000069  11.73999977  56.03000259
C    14.27000046  11.31999969  54.89999771
C    15.65999985  11.31999969  54.86000061
C     5.78999996   9.98999977  55.38999939
H     5.31196451  10.65354252  54.66938019
H    10.26000023  10.39999962  53.22000122
H    11.25000000  12.02999973  57.84000015
H     8.84000015  11.77999973  58.47999954
H     6.63999987  11.18000031  57.83000183
H     8.11999989   9.96999931  53.89999771
H    16.13000107  11.00000000  53.93000031
H     5.19000006   9.81000042  56.29000092
H     5.93999958   9.02000046  54.91000366
S    13.89999962   8.80000019  50.51000214
C    11.23000050   8.19999981  51.09000397
C    12.56000042   8.10999966  51.45000076
C    13.02999973   7.57000017  52.69000244
C    12.06999969   7.13000011  53.57999802
C    10.70000076   7.13999987  53.22000122
C     9.61999989   6.78999996  54.09000015
C     8.27999973   6.93000031  53.81999969
C     7.85000038   7.37999964  52.54000092
C     8.86999989   7.69000006  51.68000031
C    10.26999950   7.57999992  51.91999817
C    14.44000053   7.79999971  52.95999908
C    15.01999950   8.47999954  51.84999847
C    16.28000069   9.06000042  51.90000153
C     6.38999987   7.60999966  52.21000290
H     6.03238249   7.31675386  51.22297668
H    10.95999908   8.73999977  50.19000244
H    12.30999947   6.65999985  54.52999878
H     9.88000011   6.35999966  55.05000305
H     7.59999990   6.58999968  54.59000015
H     8.59000015   8.01999950  50.68000031
H    16.68000031   9.51000023  50.98999786
H     5.79999971   7.21000004  53.04999924
H     6.30999994   8.69999981  52.31999969
S    17.72999954   7.53000021  55.24000168
C    20.35000038   7.86999989  54.45000076
C    19.03000069   8.11999989  54.18000031
C    18.57999992   8.85999966  53.04000092
C    19.52000046   9.22000027  52.09000015
C    20.89999962   9.09000015  52.36999893
C    21.87999916   9.55999947  51.44000244
C    23.21000099   9.47000027  51.79999924
C    23.64000130   8.94999981  53.04999924
C    22.70000076   8.46000004  53.92000198
C    21.31999969   8.43000031  53.56999969
C    17.12000084   8.82999992  52.98999786
C    16.53000069   8.10000038  54.06000137
C    15.19999981   7.73000002  54.13000107
C    25.07999802   8.60000038  53.33000183
H    25.43533134   8.77055836  54.34624481
H    20.58000183   7.37999964  55.38999939
H    19.31999969   9.63999939  51.11000061
H    21.61999893  10.00000000  50.47999954
H    23.85999870   9.57999992  50.93000031
H    22.92000008   7.88999987  54.81999969
H    14.77000046   7.14999962  54.94999695
H    25.76999855   9.15999985  52.68000031
H    25.22999954   7.53000021  53.15000153
