96

S    16.87999916  12.55000019  58.34000015
C    19.54000092  12.67000008  57.69000244
C    18.27999878  12.30999947  57.28000259
C    17.97000122  11.72000027  56.00999832
C    19.00000000  11.54000092  55.10000229
C    20.28000069  12.02999973  55.45999908
C    21.32999802  11.85999966  54.51000214
C    22.63999939  12.05000019  54.88999939
C    22.95999908  12.61999989  56.14999771
C    21.94000053  12.97000027  57.00000000
C    20.59999847  12.56999969  56.75000000
C    16.54999924  11.44000053  55.90999985
C    15.84000015  11.87000084  57.06999969
C    14.46000004  12.00000000  57.00000000
C    24.43000031  12.76000023  56.49000168
H    24.74473763  12.25928116  57.40560150
H    19.75000000  13.12999916  58.66000366
H    18.75000000  11.18000031  54.10999680
H    21.11000061  11.33999920  53.59000397
H    23.43000031  11.67000008  54.25000000
H    22.13999939  13.45000076  57.95999908
H    13.86000061  12.17000008  57.88999939
H    25.03000069  12.43999958  55.61999893
H    24.54000092  13.82999992  56.70999908
S    13.40999985  10.64000034  53.39000320
C    10.67000008  10.92000008  53.89999771
C    11.97000027  11.06999969  54.34000015
C    12.34000015  11.61999893  55.59999847
C    11.33999920  11.95000076  56.49000168
C    10.00000000  11.82999992  56.03000259
C     8.93999958  11.97000027  56.97000122
C     7.63999987  11.63000011  56.70000076
C     7.23999977  11.10000038  55.44000244
C     8.25000000  10.88999939  54.52999878
C     9.61000061  11.25000000  54.77000427
C    13.78000069  11.64999962  55.83000183
C    14.47999954  11.10000038  54.72999954
C    15.86999989  10.98000050  54.78000259
C     5.86999989  10.52999973  55.13999939
H     5.32800579  11.03633690  54.34127045
H    10.47999954  10.43000031  52.95000076
H    11.59000015  12.35999966  57.47000122
H     9.13999939  12.30000019  57.97999954
H     7.00000000  11.59999943  57.57999802
H     8.06999969  10.38000011  53.59000397
H    16.44000053  10.77000046  53.88000107
H     5.35000038  10.55999947  56.10000229
H     6.07999992   9.48999977  54.84000397
S    17.13000107  12.79000092  52.43999863
C    19.81999969  12.97999954  51.65000153
C    18.54999924  12.51999950  51.40999603
C    18.13999939  11.85999966  50.20000076
C    19.12999916  11.68000031  49.25000000
C    20.46999931  12.05000019  49.51000214
C    21.47999954  11.87000084  48.52000427
C    22.79000092  12.22000027  48.75000000
C    23.12999916  12.81999969  49.99000168
C    22.18000031  13.09000015  50.96000290
C    20.81000137  12.84999943  50.65000153
C    16.69999886  11.76000023  50.05000305
C    16.01000023  12.30999947  51.16000366
C    14.63999939  12.56999969  51.11000061
C    24.56999969  13.21000004  50.19000244
H    25.09024429  12.63986969  50.95967484
H    20.10999870  13.50999928  52.56000137
H    18.95000076  11.19999981  48.29000092
H    21.28000069  11.46000004  47.52999878
H    23.47999954  11.94000053  47.95000076
H    22.40999985  13.64999962  51.86000061
H    14.09000015  12.82999992  52.01000214
H    25.13999939  13.12000084  49.26000214
H    24.59000015  14.28999996  50.38000107
S    13.52000046  11.26000023  47.57999802
C    10.76000023  11.42000008  48.13999939
C    12.06999969  11.64000034  48.52000427
C    12.46000099  12.13999939  49.79999924
C    11.42000008  12.28000069  50.70000076
C    10.07999992  11.92000008  50.45000076
C     8.94999981  12.09000015  51.30000305
C     7.68000031  11.80999947  50.86000061
C     7.36999989  11.16000080  49.62999725
C     8.45000076  11.00999928  48.79000092
C     9.73999977  11.50000000  49.12000275
C    13.89999962  12.34000015  49.94999695
C    14.61999989  11.73999977  48.88999939
C    15.98000050  11.43000031  48.89999771
C     5.98000002  10.67999935  49.29000092
H     5.56794930  11.21992874  48.43748093
H    10.57999992  10.86999989  47.21000290
H    11.64999962  12.58999920  51.72000122
H     9.13000011  12.58999920  52.25000000
H     6.84999990  12.20999908  51.44000244
H     8.30000019  10.57999992  47.80000305
H    16.52000046  11.10999966  48.02000046
H     5.38000011  10.71000004  50.20000076
H     6.07999992   9.61000061  49.08000183
