96

S    16.52000046  11.79999924  58.92000198
C    19.26000023  11.97999954  58.15999985
C    17.97000122  11.56000042  57.93000031
C    17.57999992  11.10000038  56.63000107
C    18.50000000  11.10000038  55.59999847
C    19.79999924  11.61000061  55.79999924
C    20.81999969  11.44000053  54.81999969
C    22.13999939  11.72999954  55.06999969
C    22.52000046  12.27000046  56.31999969
C    21.55999947  12.36999989  57.30999756
C    20.17999840  12.11999989  57.09000015
C    16.13999939  11.14999962  56.39999771
C    15.40999985  11.47999954  57.56999969
C    14.02999973  11.64999962  57.68000031
C    23.95000076  12.69000053  56.52999878
H    24.34922791  12.00561047  57.27854919
H    19.57999992  12.06999969  59.20000076
H    18.18000031  10.73999977  54.61999893
H    20.48999977  10.97000027  53.88999939
H    22.88000107  11.68000031  54.27999878
H    21.84000015  12.48000050  58.36000061
H    13.57999992  11.84999943  58.64999771
H    24.48999786  12.60000038  55.58000183
H    23.97999954  13.71999931  56.93000031
S    12.92000008  10.43000031  54.06999969
C    10.25000000  10.27999973  54.79999924
C    11.52999973  10.60999966  55.15999603
C    11.90999985  11.10000038  56.45000076
C    10.93000031  11.25000000  57.41000366
C     9.59999943  10.90000057  57.06999969
C     8.55000019  11.23999977  57.97999954
C     7.23000002  11.18000031  57.62000275
C     6.84000015  10.57999992  56.39999771
C     7.83999968  10.15999985  55.54999924
C     9.22000027  10.42000008  55.77000046
C    13.32999992  11.42000008  56.49000168
C    14.02999973  10.98999977  55.34000015
C    15.40999985  10.77999973  55.27000046
C     5.42999983  10.11999989  56.12999725
H     4.99705791  10.59552670  55.24991989
H    10.07999992   9.92999935  53.79000092
H    11.05000019  11.72999954  58.37999725
H     8.76999950  11.73999977  58.92000198
H     6.44000006  11.44000053  58.33000183
H     7.63999987   9.63000011  54.61999893
H    15.85000038  10.29999924  54.40000153
H     4.73000002  10.27999973  56.95999908
H     5.46000004   9.02999973  56.02000427
S    13.31999969   8.56000042  50.86999893
C    10.67999935   8.09000015  51.38999939
C    11.97000027   7.88000011  51.81000137
C    12.43999958   7.26000023  53.01000214
C    11.39999962   6.67999983  53.70999908
C    10.03000069   6.89000034  53.39000320
C     9.01000023   6.38999987  54.25000000
C     7.68000031   6.65999985  54.02999878
C     7.31999969   7.49000025  52.94000244
C     8.25000000   7.86000013  51.98999786
C     9.63000011   7.63999987  52.22999954
C    13.88000011   7.37999964  53.15000153
C    14.51000023   8.10999966  52.11000061
C    15.86999989   8.39999962  52.09999847
C     5.86000013   7.85000038  52.76000214
H     5.45382690   7.44382668  51.83364105
H    10.40999985   8.69000053  50.52000046
H    11.61999893   6.05999994  54.58000183
H     9.35999966   5.79999971  55.08999634
H     6.94000006   6.50000000  54.81999969
H     7.96000004   8.45000076  51.12999725
H    16.26000023   9.10000038  51.37000275
H     5.26999998   7.53000021  53.61999893
H     5.73000002   8.93999958  52.76000214
S    17.14999962   6.65000010  55.44000244
C    19.79999924   7.30000019  54.93000031
C    18.47999954   7.44000006  54.56999969
C    18.04999924   8.17000008  53.43000031
C    19.03000069   8.67999935  52.60000229
C    20.40999985   8.55000019  52.88999939
C    21.38999939   8.94999981  51.93999863
C    22.72000122   8.73000050  52.23999786
C    23.12000084   8.09000015  53.43999863
C    22.18000031   7.78999996  54.40999985
C    20.79000092   7.90999985  54.12000275
C    16.61000061   8.06999969  53.23999786
C    16.00000000   7.26999998  54.23999786
C    14.67000008   6.86999989  54.19000244
C    24.59000015   7.73999977  53.55999756
H    24.95970726   8.08126831  54.52692795
H    20.07999802   6.61000013  55.72999954
H    18.72999954   9.15000057  51.65999985
H    21.19999886   9.30000019  50.93000031
H    23.43000031   8.98999977  51.46999741
H    22.53000069   7.30999994  55.31000137
H    14.21000004   6.23000050  54.93999863
H    25.22999954   8.17000008  52.78999710
H    24.76000023   6.65000010  53.55999756
