96

S    16.17000008  11.98999977  58.80000305
C    18.90999985  11.69999981  58.23999786
C    17.60000038  11.59000015  57.83000183
C    17.25000000  11.31000042  56.46999741
C    18.22000122  10.93999958  55.56000137
C    19.56999969  11.10000038  55.94999695
C    20.56999969  10.93999958  54.93999863
C    21.86000061  11.31999969  55.20999908
C    22.26000023  11.76000023  56.50000000
C    21.28999901  11.97000027  57.44999695
C    19.92000008  11.64999962  57.23999786
C    15.80999947  11.28000069  56.26999664
C    15.08999920  11.56000042  57.45999908
C    13.69999981  11.65999985  57.48000336
C    23.69999886  12.11999989  56.76000214
H    24.18206215  11.41817379  57.44055939
H    19.29000092  11.90000057  59.22999954
H    17.97999954  10.64000034  54.54999924
H    20.30999947  10.67999935  53.92000198
H    22.56000137  11.16000080  54.38999939
H    21.54999924  12.35000038  58.43999863
H    13.23999977  11.92999935  58.41999817
H    24.30000114  12.11999989  55.84000015
H    23.81000137  13.09000015  57.23999786
S    12.74000072  10.44999981  53.73000336
C    10.07999992  10.32999992  54.31000137
C    11.32999992  10.67000008  54.77000427
C    11.59000015  11.21999931  56.06999969
C    10.52999973  11.31000042  56.95000076
C     9.22999954  10.90999985  56.53999710
C     8.14000034  10.97000027  57.44999695
C     6.85999966  10.72000027  57.02000046
C     6.61000013  10.29000092  55.70000076
C     7.63999987  10.14999962  54.79999924
C     8.97000027  10.50000000  55.18000031
C    13.02000046  11.38000011  56.29000092
C    13.71000099  10.88999939  55.14999771
C    15.08999920  10.82999992  55.15999603
C     5.26000023   9.81000042  55.20999908
H     4.89961815  10.46716690  54.41857147
H     9.85000038   9.96000004  53.31999969
H    10.64000034  11.54999924  58.00000000
H     8.31999969  11.44999981  58.40999985
H     5.98000002  10.64000034  57.65999603
H     7.35000038   9.89000034  53.79000092
H    15.59999943  10.31999969  54.34000015
H     4.51999998   9.78999996  56.02000427
H     5.52999973   8.78999996  54.92000198
S    16.97999954  12.11999989  52.47000122
C    19.70999908  12.53999901  51.88000107
C    18.44000053  12.20000076  51.46999741
C    18.02000046  11.92999935  50.12000275
C    19.05999947  11.96000004  49.20999908
C    20.39999962  12.25999928  49.51000214
C    21.47999954  11.87999916  48.66000366
C    22.79000092  12.02999973  49.05000305
C    23.06999969  12.67000008  50.28999710
C    22.07999992  12.76999950  51.24000168
C    20.72000122  12.56000042  50.89000320
C    16.61000061  11.61999893  49.95999908
C    15.85000038  11.75000000  51.14999771
C    14.47999954  11.87000084  51.27999878
C    24.44999886  13.15999985  50.66999817
H    24.92129326  12.36022663  51.24126434
H    19.92000008  12.69999981  52.94000244
H    18.84000015  11.43000031  48.27999878
H    21.01000023  11.42000008  47.80000305
H    23.64000130  11.89000034  48.39000320
H    22.22999954  13.01000023  52.29000092
H    13.97999954  12.23999977  52.16999817
H    24.96999931  13.45999908  49.75000000
H    24.28999901  14.01999950  51.32999802
S    13.35999966  11.35000038  47.47000122
C    10.65000057  11.00999928  48.22000122
C    11.95000076  11.32999992  48.54000092
C    12.32999992  11.64000034  49.88999939
C    11.32999992  11.84000015  50.81999969
C     9.96999931  11.59000015  50.52000046
C     8.88000011  11.73999977  51.42000198
C     7.55999994  11.44000053  51.17000198
C     7.27999973  10.88999939  49.87999725
C     8.27000046  10.82999992  48.93000031
C     9.63000011  11.14999962  49.19000244
C    13.78000069  11.64999962  50.07999802
C    14.46000004  11.46000004  48.86000061
C    15.84000015  11.47999954  48.79000092
C     5.92000008  10.31999969  49.56999969
H     5.38449621  11.00544548  48.91311264
H    10.36999893  10.57999992  47.25999832
H    11.69000053  12.10000038  51.81000137
H     9.19000053  12.03999996  52.42000198
H     6.89000034  11.46000004  52.02000046
H     8.00000000  10.34000015  47.98999786
H    16.29999924  11.26000023  47.83000183
H     5.32000017  10.14999962  50.47999954
H     6.01000023   9.28999996  49.20000076
