96

S    17.07999992  11.89000034  58.76999664
C    19.76000023  12.35000038  58.00000000
C    18.50000000  11.85999966  57.70999908
C    18.13999939  11.32999992  56.43000031
C    19.11999893  11.23000050  55.45000076
C    20.40999985  11.72999954  55.72999954
C    21.52000046  11.78999996  54.84000397
C    22.82999992  11.95000076  55.21999741
C    23.15000153  12.35999966  56.53999710
C    22.11999893  12.46999931  57.43999863
C    20.78000069  12.25000000  57.02000046
C    16.70999908  11.13000011  56.29000092
C    16.00000000  11.30000019  57.50000000
C    14.60999966  11.39999962  57.57999802
C    24.57999992  12.68000031  56.93000031
H    24.96963882  12.09908390  57.76595306
H    19.95000076  12.67000008  59.02999878
H    19.01000023  10.82999992  54.45000076
H    21.38999939  11.49000072  53.80000305
H    23.57999992  11.72999954  54.45999908
H    22.22999954  12.79000092  58.47000122
H    14.14000034  11.57999992  58.54999924
H    25.25000000  12.57999992  56.05999756
H    24.56999969  13.71999931  57.25000000
S    13.50999928  10.67000008  53.83999634
C    10.77999973  10.60999966  54.54000092
C    12.07999992  10.88000107  54.86999893
C    12.43999958  11.21999931  56.22000122
C    11.44000053  11.36000061  57.15999985
C    10.07999992  11.05999947  56.88000107
C     8.97000027  11.06999969  57.77000046
C     7.73999977  10.59999943  57.38999939
C     7.46999979  10.10000038  56.09000397
C     8.48999977  10.14000034  55.18000031
C     9.77000046  10.65999985  55.52999878
C    13.88000011  11.21000099  56.40999603
C    14.60000038  10.90000057  55.21999741
C    15.98999977  10.88000107  55.11000061
C     6.05999994   9.76000023  55.65999985
H     5.58329058  10.38612652  54.90580368
H    10.57000065  10.15999985  53.56999969
H    11.64999962  11.50000000  58.20999908
H     9.23999977  11.43000031  58.75999832
H     6.94000006  10.84000015  58.09000015
H     8.34000015   9.80000019  54.15000153
H    16.40999985  10.80000019  54.12000275
H     5.42000008   9.78999996  56.55000305
H     6.06999969   8.71000004  55.34000015
S    13.38999939   8.73999977  50.56000137
C    10.72000027   8.30999947  51.31000137
C    12.05999947   8.14999962  51.58000183
C    12.53999901   7.50999975  52.76000214
C    11.61000061   6.97000027  53.62999725
C    10.21999931   7.16000032  53.44999695
C     9.30000019   6.65999985  54.40999985
C     7.95000029   6.75000000  54.15999985
C     7.55000019   7.26000023  52.88999939
C     8.38999939   7.73999977  51.90999985
C     9.77999973   7.71000004  52.18999863
C    13.99000072   7.62000036  52.87000275
C    14.60000038   8.30999947  51.79000092
C    15.93000031   8.71000004  51.91999817
C     6.06999969   7.44000006  52.64999771
H     5.67824459   7.06961298  51.70266342
H    10.25000000   8.84000015  50.47999954
H    11.92999935   6.63999987  54.61000061
H     9.72999954   6.17000008  55.27999878
H     7.17999983   6.53999996  54.88999939
H     8.05999947   8.05999947  50.91999817
H    16.31999969   9.22000027  51.04000092
H     5.46999979   7.25000000  53.54999924
H     5.96000004   8.52000046  52.54000092
S    17.18000031   7.03999996  55.27999878
C    19.84000015   7.76000023  54.87999725
C    18.53999901   7.81000042  54.45000076
C    18.12999916   8.45000076  53.23999786
C    19.13999939   8.93000031  52.42000198
C    20.51000214   8.90999985  52.77999878
C    21.53000069   9.32999992  51.88999939
C    22.86999893   9.15000057  52.14000320
C    23.16999817   8.48999977  53.36000061
C    22.22999954   8.02999973  54.26000214
C    20.85000038   8.28999996  54.02999878
C    16.69000053   8.36999989  53.04000092
C    16.03000069   7.65999985  54.08000183
C    14.70000076   7.26000023  54.02000046
C    24.60000038   8.02999973  53.54000092
H    25.01386452   8.55090141  54.40341187
H    20.13000107   7.26000023  55.80999756
H    18.81999969   9.43000031  51.51000214
H    21.12999916   9.75000000  50.97000122
H    23.61999893   9.55999947  51.45999908
H    22.47999954   7.37999964  55.08999634
H    14.26000023   6.61999989  54.77000427
H    25.22000122   8.23000050  52.65999603
H    24.60000038   6.93000031  53.61999893
