96

S    16.56999969  11.90000057  58.62999725
C    19.31999969  12.10999966  58.06999969
C    18.05999947  11.69999981  57.69000244
C    17.75000000  11.26000023  56.36000061
C    18.78000069  11.11999989  55.45000076
C    20.10999870  11.39999962  55.84000015
C    21.18999863  11.18000031  54.93999863
C    22.49000168  11.39999962  55.33000183
C    22.77000046  11.94000053  56.60999680
C    21.75000000  12.10999966  57.51999664
C    20.38999939  11.87000084  57.18000031
C    16.31000137  11.07999992  56.19999695
C    15.48999977  11.40999985  57.30999756
C    14.09999943  11.51999950  57.28000259
C    24.15999985  12.43000031  56.95999908
H    24.69471359  11.68140125  57.54462051
H    19.52000046  12.64999962  58.99000168
H    18.63999939  10.98000050  54.38999939
H    20.95999908  10.90999985  53.90999603
H    23.22999954  11.36000061  54.52999878
H    21.94000053  12.46000099  58.53000259
H    13.55000019  11.84999943  58.15000153
H    24.70999908  12.81999969  56.09000397
H    24.11000061  13.30000019  57.63000107
S    13.12999916  10.25000000  53.69999695
C    10.36000061  10.17000008  54.27000046
C    11.64999962  10.47999954  54.65000153
C    12.01000023  10.97000027  55.94999695
C    10.97000027  11.19999981  56.83000183
C     9.61999989  10.98999977  56.45999908
C     8.60000038  11.09000015  57.43999863
C     7.36000013  10.62000084  57.09999847
C     6.98000002  10.29999924  55.77000046
C     7.94000053  10.31000042  54.78000259
C     9.30000019  10.52000046  55.13999939
C    13.45000076  11.13000011  56.10000229
C    14.25000000  10.77000046  54.98000336
C    15.64000034  10.72999954  55.02999878
C     5.60999966   9.72000027  55.52000046
H     5.19634676  10.32621670  54.71408844
H    10.19999981   9.52999973  53.40999985
H    11.19999981  11.28999901  57.88000107
H     8.89000034  11.36000061  58.46000290
H     6.61999989  10.44000053  57.88000107
H     7.63999987   9.92000008  53.81000137
H    16.32999992  10.43000031  54.25000000
H     4.88999987   9.73999977  56.35000229
H     5.59000015   8.69000053  55.13000107
S    17.45000076  12.55000019  52.69000244
C    20.15000153  12.51999950  51.98999786
C    18.84000015  12.25999928  51.62000275
C    18.51000023  11.69999981  50.34999847
C    19.51000023  11.54000092  49.40999985
C    20.86000061  11.84999943  49.71000290
C    21.88999939  11.49000072  48.79000092
C    23.19999886  11.75000000  49.09000015
C    23.52999878  12.25000000  50.38000107
C    22.55000114  12.46999931  51.32999802
C    21.18000031  12.20000076  51.06999969
C    17.06999969  11.56999969  50.19000244
C    16.40999985  12.01000023  51.36000061
C    15.01999950  12.05999947  51.32999802
C    24.93999863  12.68000031  50.68999863
H    25.33286285  11.92284489  51.36857986
H    20.36999893  12.86999893  52.98999786
H    19.25000000  11.19999981  48.40999985
H    21.54000092  11.06999969  47.84999847
H    24.03000069  11.71000004  48.37999725
H    22.81999969  13.01000023  52.22999954
H    14.52999973  12.28999996  52.25999832
H    25.36999893  12.79000092  49.68999863
H    24.99000168  13.67000008  51.16000366
S    13.94000053  10.95999908  47.67000198
C    11.23000050  11.13000011  48.22999954
C    12.51999950  11.31000042  48.68000031
C    12.86000061  11.78999996  49.98000336
C    11.82000065  12.09000015  50.84999847
C    10.48999977  11.76000023  50.50000000
C     9.46000004  11.90999985  51.47999573
C     8.14999962  11.61999893  51.19999695
C     7.82000017  11.07999992  49.92000198
C     8.82000065  10.93999958  48.99000168
C    10.18000031  11.31999969  49.16999817
C    14.29999924  11.77000046  50.15999603
C    15.03000069  11.35000038  49.02000046
C    16.39999962  11.11999989  49.03999710
C     6.44000006  10.57000065  49.61000061
H     5.87357569  11.23554897  48.95861053
H    11.06999969  10.84000015  47.19999695
H    12.03999996  12.43000031  51.86000061
H     9.76000023  12.23999977  52.47000122
H     7.40999985  11.64999962  52.00000000
H     8.59000015  10.44000053  48.06000137
H    16.87999916  10.81999969  48.11000061
H     5.88000011  10.34000015  50.52999878
H     6.52999973   9.61000061  49.09000015
