96

S    16.60000038  12.38999939  58.76999664
C    19.34000015  12.13999939  58.20999908
C    18.04000092  12.11999989  57.77000046
C    17.72999954  11.67000008  56.44000244
C    18.72999954  11.44000053  55.51000214
C    20.09000015  11.69000053  55.80999756
C    21.12999916  11.82000065  54.86000061
C    22.39000130  12.20000076  55.25000000
C    22.65999985  12.48999977  56.62000275
C    21.64999962  12.42000008  57.55000305
C    20.32999992  12.02000046  57.18999863
C    16.29999924  11.47999954  56.30000305
C    15.54999924  11.90999985  57.42000198
C    14.17000008  12.11999989  57.34000397
C    24.04999924  12.89999962  57.04000092
H    24.61862373  12.23186588  57.68681335
H    19.60000038  12.57999992  59.16999817
H    18.44000053  11.28000069  54.47000122
H    20.86999893  11.57999992  53.82999802
H    23.21000099  12.15999985  54.54000092
H    21.88999939  12.51999950  58.60000229
H    13.55000019  12.53000069  58.13000107
H    24.60000038  13.07000065  56.10000229
H    24.01000023  13.83999920  57.60000229
S    13.19000053  10.80000019  53.73000336
C    10.42000008  10.81999969  54.43999863
C    11.73999977  11.10000038  54.71000290
C    12.06999969  11.68000031  55.97999954
C    11.10000038  11.79999924  56.95999908
C     9.73999977  11.51000023  56.69000244
C     8.73000050  11.52999973  57.68000031
C     7.44999981  11.16000080  57.34000397
C     7.07000017  10.80000019  56.02000427
C     8.02999973  10.72999954  55.05000305
C     9.36999989  11.09000015  55.35999680
C    13.50999928  11.82000065  56.14999771
C    14.25000000  11.30000019  55.06000137
C    15.64000034  11.23000050  55.08999634
C     5.66999960  10.32999992  55.70000076
H     5.20784473  10.94146633  54.92500305
H    10.22999954  10.36000061  53.47999954
H    11.46000004  12.10999966  57.94000244
H     9.04999924  11.84999943  58.67000198
H     6.80000019  10.98999977  58.18999863
H     7.82999992  10.29999924  54.06999969
H    16.15999985  11.00999928  54.15999985
H     5.03000021  10.29000092  56.59000015
H     5.73999977   9.26999950  55.40999985
S    17.43999863  12.94999981  52.62000275
C    20.12000084  13.31999969  51.72999954
C    18.82999992  12.88000011  51.52999878
C    18.47999954  12.32999992  50.25000000
C    19.47000122  12.09000015  49.31000137
C    20.81000137  12.44999981  49.59999847
C    21.90000153  12.09000015  48.75000000
C    23.22000122  12.34000015  49.00000000
C    23.48999977  12.98999977  50.24000168
C    22.55000114  13.35000038  51.17000198
C    21.18999863  13.05999947  50.84000015
C    17.04000092  12.25000000  50.10000229
C    16.34000015  12.63000011  51.26999664
C    14.94999981  12.58999920  51.38999939
C    24.93000031  13.32999992  50.56999969
H    25.41185760  12.66390324  51.28570175
H    20.29999924  13.85000038  52.65999603
H    19.26000023  11.64999962  48.34000015
H    21.75000000  11.52999973  47.83000183
H    23.92999840  11.89000034  48.30999756
H    22.67999840  13.81000042  52.15000153
H    14.47999954  12.84999943  52.32999802
H    25.50000000  13.42000008  49.64000320
H    24.87999916  14.35999966  50.93000031
S    13.73000050  11.32999992  47.84000015
C    11.09000015  11.13000011  48.67000198
C    12.36999989  11.54999924  48.95000076
C    12.72999954  12.03999996  50.24000168
C    11.72000027  12.44999981  51.09000397
C    10.39999962  12.00000000  50.84000015
C     9.34000015  12.20000076  51.77000046
C     8.05999947  11.77000046  51.49000168
C     7.73000002  11.13000011  50.27999878
C     8.73999977  10.80999947  49.40000153
C    10.06000042  11.26999950  49.64000320
C    14.18000031  12.05999947  50.34999847
C    14.85999966  11.69999981  49.15999985
C    16.25000000  11.77000046  49.05000305
C     6.26999950  10.88000107  49.95999908
H     5.85834169  11.48329258  49.15087891
H    10.76000023  10.62000084  47.77000046
H    11.80999947  12.94000053  52.05999756
H     9.48999977  12.79000092  52.67000198
H     7.28999996  11.94000053  52.23999786
H     8.60999966  10.29999924  48.43999863
H    16.69000053  11.52999973  48.09000015
H     5.69000006  11.10999966  50.86000061
H     6.05999994   9.81000042  49.85000229
