96

S    16.92000008  12.53000069  58.56999969
C    19.69000053  12.48000050  57.95000076
C    18.38000107  12.23000050  57.61000061
C    18.04000092  11.59999943  56.37000275
C    19.04000092  11.19999981  55.51000214
C    20.38000107  11.54999924  55.79999924
C    21.42999840  11.13000011  54.93000031
C    22.73999977  11.30000019  55.30000305
C    23.12000084  12.10999966  56.40999603
C    22.09000015  12.56999969  57.21000290
C    20.72000122  12.23999977  57.01000214
C    16.61000061  11.46999931  56.13999939
C    15.86999989  12.01000023  57.22999954
C    14.51000023  12.23999977  57.11000061
C    24.57999992  12.36999989  56.68000031
H    25.02072144  11.58807564  57.29843140
H    19.78000069  13.10999966  58.82999802
H    18.84000015  10.46000004  54.73999786
H    21.14000130  10.59000015  54.02999878
H    23.44000053  10.80000019  54.64000320
H    22.27000046  13.12999916  58.11999893
H    13.97999954  12.60000038  57.98999786
H    25.20000076  12.46000099  55.79000092
H    24.59000015  13.35000038  57.18000031
S    13.53000069  10.85999966  53.54999924
C    10.82999992  10.62999916  54.15999985
C    12.05000019  11.16000080  54.48999786
C    12.35000038  11.73999977  55.76000214
C    11.35000038  11.82999992  56.70999908
C    10.01000023  11.51000023  56.37000275
C     8.88000011  11.72999954  57.21000290
C     7.63000011  11.26999950  56.86000061
C     7.42999983  10.51000023  55.68000031
C     8.48999977  10.36999893  54.80999756
C     9.78999996  10.88000107  55.08999634
C    13.78999901  11.82999992  55.97999954
C    14.55000019  11.21000099  54.95999908
C    15.92000008  10.98999977  55.01999664
C     6.09000015   9.92000008  55.31999969
H     5.46493816  10.72973919  54.94354248
H    10.67000008  10.13000011  53.20999908
H    11.64000034  12.09000015  57.71999741
H     9.06000042  12.18999958  58.18000031
H     6.77999973  11.54999924  57.48000336
H     8.36000061   9.90999985  53.83999634
H    16.55999947  10.65000057  54.20000076
H     5.61999989   9.39999962  56.16000366
H     6.23000050   9.13000011  54.56999969
S    17.05000114  12.67000008  52.38999939
C    19.72999954  12.60000038  51.77000046
C    18.45000076  12.32999992  51.35000229
C    18.12999916  11.77000046  50.06999969
C    19.18000031  11.39999962  49.23999786
C    20.48000145  11.82999992  49.58000183
C    21.53000069  11.78999996  48.61000061
C    22.73999977  12.42000008  48.81999969
C    23.02999878  13.05999947  50.05000305
C    22.10000038  12.96000004  51.05999756
C    20.78000069  12.48000050  50.83000183
C    16.69999886  11.96000004  49.86000061
C    15.98000050  12.39999962  51.00000000
C    14.61999989  12.67000008  51.04999924
C    24.46000099  13.40000057  50.40000153
H    24.89341927  12.71079254  51.12473679
H    19.82999992  13.07000065  52.74000168
H    18.95000076  10.98999977  48.26000214
H    21.25999832  11.32999992  47.65999603
H    23.54000092  12.44999981  48.09999847
H    22.34000015  13.30999947  52.05999756
H    14.11000061  13.07999992  51.91999817
H    25.06999969  13.30999947  49.48999786
H    24.54999924  14.40999985  50.79999924
S    13.45999908  11.10999966  47.55000305
C    10.73999977  11.26000023  48.27000046
C    12.05999947  11.54000092  48.54999924
C    12.44999981  12.07999992  49.81999969
C    11.49000072  12.18000031  50.80999756
C    10.13000011  11.87999916  50.52999878
C     9.11999989  11.90000057  51.52999878
C     7.79999971  11.61999893  51.22000122
C     7.39000034  11.23999977  49.92000198
C     8.36000061  11.06999969  48.95999908
C     9.72000027  11.38000011  49.25000000
C    13.89000034  12.20999908  49.94999695
C    14.56999969  11.65999985  48.82999802
C    15.95000076  11.67000008  48.70999908
C     5.93999958  11.03999996  49.54999924
H     5.52761555  12.01408005  49.28692627
H    10.44999981  10.86999989  47.29999924
H    11.72999954  12.46999931  51.83000183
H     9.40999985  12.30000019  52.50000000
H     7.23999977  11.89000034  52.11000061
H     8.02999973  10.88999939  47.95000076
H    16.35000038  11.21999931  47.81000137
H     5.33999968  10.65000057  50.38000107
H     5.78000021  10.32999992  48.72000122
