96

S    16.98999977  12.46999931  58.63999939
C    19.70999908  12.57999992  57.98999786
C    18.43000031  12.20999908  57.63999939
C    18.11000061  11.77999973  56.31000137
C    19.12999916  11.76000023  55.37000275
C    20.46999931  12.13000107  55.65999985
C    21.55999947  11.94000053  54.77000427
C    22.84000015  12.23999977  55.18000031
C    23.09000015  12.75000000  56.47999573
C    22.04999924  12.89000034  57.37999725
C    20.71000099  12.60000038  56.98999786
C    16.69000053  11.50000000  56.18999863
C    15.93999958  11.90999985  57.32999802
C    14.60000038  12.27000046  57.23999786
C    24.48999786  13.12999916  56.88000107
H    24.78939438  12.56685162  57.76392746
H    20.03000069  12.88000011  58.99000168
H    19.04000092  11.18000031  54.45000076
H    21.38999939  11.63000011  53.74000168
H    23.57999992  12.10000038  54.38999939
H    22.13000107  13.09000015  58.43999863
H    14.11999893  12.64999962  58.13000107
H    25.12000084  12.84999943  56.02000427
H    24.47000122  14.22000027  57.01000214
S    13.55000019  10.95999908  53.63999939
C    10.84000015  10.67999935  54.29999924
C    12.10999966  11.06999969  54.66999817
C    12.38999939  11.64000034  55.94999695
C    11.31000042  11.90999985  56.77000046
C     9.98999977  11.51999950  56.45999908
C     8.92000008  11.79999924  57.36000061
C     7.64999962  11.33999920  57.11000061
C     7.46999979  10.53999996  55.94999695
C     8.46000004  10.32999992  55.01999664
C     9.77000046  10.85000038  55.20999908
C    13.82999992  11.77000046  56.18000031
C    14.55999947  11.36000061  55.04000092
C    15.93999958  11.18999958  55.05000305
C     6.07999992  10.00000000  55.68999863
H     5.53149652  10.66247940  55.02039719
H    10.59000015  10.25000000  53.34000015
H    11.46999931  12.36999989  57.75000000
H     9.25000000  12.13999939  58.34000015
H     6.86999989  11.21000099  57.85999680
H     8.27000046   9.72999954  54.13000107
H    16.46000099  10.97000027  54.12000275
H     5.61999989   9.71000004  56.63999939
H     6.25000000   9.06999969  55.12000275
S    17.43000031  12.84999943  52.55000305
C    20.10000038  12.94000053  51.81000137
C    18.81999969  12.56999969  51.47999573
C    18.45999908  12.05999947  50.19000244
C    19.48999977  11.77000046  49.31999969
C    20.78000069  12.28000069  49.58000183
C    21.84000015  12.20000076  48.62999725
C    23.11000061  12.69000053  48.85000229
C    23.40999985  13.23999977  50.12000275
C    22.44999886  13.35999966  51.10000229
C    21.14000130  12.86000061  50.84000015
C    17.01000023  12.00000000  50.04000092
C    16.35000038  12.53000069  51.18000031
C    14.96999931  12.69000053  51.18999863
C    24.80999947  13.71000099  50.40000153
H    25.28054810  12.94714165  51.02026749
H    20.29000092  13.56999969  52.67000198
H    19.23999977  11.35000038  48.34000015
H    21.57999992  11.87999916  47.62000275
H    23.88999939  12.76000023  48.09999847
H    22.77000046  13.82999992  52.02999878
H    14.59000015  13.22000027  52.05999756
H    25.38000107  13.81000042  49.47000122
H    24.69000053  14.73000050  50.80999756
S    13.71999931  11.31000042  47.72999573
C    10.97000027  11.40999985  48.43000031
C    12.28999996  11.72000027  48.68999863
C    12.69000053  12.13000107  50.00000000
C    11.73999977  12.28999996  50.98999786
C    10.36999893  12.02000046  50.73999786
C     9.35000038  12.20000076  51.72000122
C     8.01999950  12.01000023  51.42000198
C     7.69000006  11.31999969  50.22999573
C     8.63000011  11.10999966  49.25000000
C     9.98999977  11.49000072  49.45000076
C    14.13000011  12.25000000  50.15999603
C    14.84000015  11.73999977  49.03999710
C    16.21000099  11.54000092  48.99000168
C     6.28000021  10.95000076  49.82999802
H     6.01674271  11.14922237  48.79119873
H    10.70000076  10.85999966  47.54000092
H    11.97999954  12.51999950  52.02999878
H     9.68000031  12.55000019  52.69000244
H     7.23000002  12.30999947  52.09999847
H     8.30000019  10.60999966  48.34999847
H    16.73999977  11.28000069  48.06999969
H     5.73000002  11.51000023  50.59999847
H     6.11000013   9.88000011  50.04000092
