96

S    16.67000008  12.15000057  58.82999802
C    19.36000061  12.43999958  58.11999893
C    18.09000015  12.05000019  57.77000046
C    17.80999947  11.39000034  56.52999878
C    18.81000137  11.25000000  55.59000015
C    20.13000107  11.71000004  55.84999847
C    21.25000000  11.46999931  55.00000000
C    22.50999832  11.85999966  55.38000107
C    22.72999954  12.43000031  56.65999985
C    21.70000076  12.60000038  57.56000137
C    20.38000107  12.30999947  57.12999725
C    16.38000107  11.21999931  56.31999969
C    15.67000008  11.51999950  57.50999832
C    14.27999973  11.64999962  57.57999802
C    24.04999924  13.14000034  56.88999939
H    24.47625923  12.52902889  57.68568420
H    19.59000015  12.71000004  59.15000153
H    18.59000015  10.71000004  54.66999817
H    20.94000053  11.18000031  54.00000000
H    23.34000015  11.84999943  54.66999817
H    21.80999947  13.22000027  58.44999695
H    13.78999901  12.18000031  58.37999725
H    24.79999924  13.12000084  56.09000397
H    23.95000076  14.18000031  57.21000290
S    13.07999992  10.62999916  53.96999741
C    10.39999962  10.39999962  54.66999817
C    11.65999985  10.85999966  55.00999832
C    12.05999947  11.39000034  56.27999878
C    11.05000019  11.47999954  57.22999954
C     9.72000027  11.16000080  56.88000107
C     8.69999981  11.40999985  57.84000015
C     7.40000010  11.03999996  57.60000229
C     7.03000021  10.57999992  56.31000137
C     7.96999979  10.48999977  55.30000305
C     9.35000038  10.62000084  55.59999847
C    13.50000000  11.32999992  56.45999908
C    14.21000004  11.00000000  55.27999878
C    15.59999943  10.92000008  55.20000076
C     5.58000040  10.24000072  56.09000397
H     5.11143398  10.92155075  55.38005066
H    10.24000072  10.06999969  53.64999771
H    11.28999901  11.63000011  58.27999878
H     9.01000023  11.77999973  58.81999969
H     6.57000017  11.14999962  58.29999924
H     7.64999962  10.08999920  54.34000015
H    15.95999908  10.59999943  54.22999954
H     4.99000025  10.22999954  57.02000046
H     5.51000023   9.22000027  55.68999863
S    13.63000011   8.69000053  50.90999985
C    10.95000076   8.15999985  51.56999969
C    12.28000069   8.03999996  51.86999893
C    12.68000031   7.34000015  53.06000137
C    11.73999977   6.86999989  53.95999908
C    10.36000061   6.96000004  53.66000366
C     9.36999989   6.44000006  54.52999878
C     8.02999973   6.54999971  54.23999786
C     7.63000011   7.20000029  53.04000092
C     8.56999969   7.72000027  52.18000031
C     9.96999931   7.63999987  52.44999695
C    14.13000011   7.42999983  53.20000076
C    14.77000046   8.17000008  52.16999817
C    16.07999992   8.63000011  52.22000122
C     6.15000010   7.42999983  52.81999969
H     5.76558971   7.08830214  51.85897446
H    10.64000034   8.64000034  50.63999939
H    12.20000076   6.32999992  54.78000259
H     9.68999958   5.95000029  55.45000076
H     7.30999994   6.30999994  55.00999832
H     8.30000019   8.27999973  51.29000092
H    16.35000038   9.13000011  51.29000092
H     5.63000011   7.02000046  53.68999863
H     5.91000032   8.50000000  52.88999939
S    17.46000099   6.89000034  55.54000092
C    20.02000046   7.82000017  55.01999664
C    18.67000008   7.92000008  54.75000000
C    18.23999977   8.51000023  53.52000427
C    19.19999886   9.06000042  52.70000076
C    20.59000015   8.96000004  52.95999908
C    21.56999969   9.53999996  52.09000015
C    22.89999962   9.26999950  52.28000259
C    23.29999924   8.38000011  53.31999969
C    22.39999962   7.88000011  54.22999954
C    21.02000046   8.21000004  54.09999847
C    16.80999947   8.27999973  53.36000061
C    16.26000023   7.44999981  54.36000061
C    14.93000031   7.04999971  54.27999878
C    24.76000023   8.06999969  53.55999756
H    25.12200546   8.38231850  54.53954315
H    20.29999924   7.14999962  55.84000015
H    18.94000053   9.44999981  51.72000122
H    21.22999954  10.03000069  51.18999863
H    23.72999954   9.63999939  51.69000244
H    22.72000122   7.30999994  55.10000229
H    14.48999977   6.44000006  55.06000137
H    25.39999962   8.60999966  52.84999847
H    24.93999863   7.00000000  53.44999695
