96

S    16.61000061  12.74000072  58.57999802
C    19.34000015  12.65999985  57.93000031
C    18.04000092  12.31999969  57.63000107
C    17.71000099  11.72000027  56.37000275
C    18.73999977  11.46000004  55.47999954
C    20.09000015  11.78999996  55.75000000
C    21.14000130  11.51999950  54.84000397
C    22.44999886  11.69000053  55.22999573
C    22.79999924  12.36999989  56.42000198
C    21.77000046  12.63000011  57.29000092
C    20.39999962  12.30000019  57.05999756
C    16.26000023  11.61999893  56.20999908
C    15.53999996  12.05000019  57.34000397
C    14.14999962  12.09000015  57.43999863
C    24.20000076  12.79999924  56.81000137
H    24.62136459  12.10725021  57.53845978
H    19.56999969  13.31999969  58.76999664
H    18.51000023  10.85000038  54.61000061
H    20.86999893  10.92000008  53.96999741
H    23.19999886  11.54000092  54.45999908
H    21.94000053  13.17000008  58.22000122
H    13.56999969  12.50000000  58.26000214
H    24.84000015  12.74000072  55.91999817
H    24.21999931  13.82999992  57.19999695
S    13.10999966  10.92000008  53.73000336
C    10.44999981  10.62000084  54.43999863
C    11.72000027  10.95999908  54.82999802
C    12.02999973  11.57999992  56.07999802
C    11.00000000  11.87999916  56.95999908
C     9.67000008  11.54999924  56.60999680
C     8.64000034  11.85999966  57.54000092
C     7.36000013  11.42000008  57.25999832
C     7.07000017  10.85000038  55.98999786
C     8.03999996  10.65000057  55.02999878
C     9.39000034  10.98000050  55.31000137
C    13.47000027  11.65999985  56.29000092
C    14.15999985  11.28000069  55.12000275
C    15.54999924  11.13999939  55.10000229
C     5.60999966  10.57000065  55.75000000
H     5.27517748  11.14703465  54.88801193
H    10.32999992  10.03999901  53.53000259
H    11.13000011  12.46000099  57.87000275
H     8.84000015  12.38999939  58.46000290
H     6.60000038  11.54000092  58.02000046
H     7.88999987  10.19999981  54.05000305
H    16.03999901  10.80000019  54.20000076
H     5.01999950  10.76000023  56.65000153
H     5.42000008   9.50000000  55.58000183
S    16.84999847  12.72999954  52.56999969
C    19.54000092  12.69000053  51.95000076
C    18.26000023  12.35999966  51.56999969
C    17.90999985  11.90000057  50.26000214
C    18.94000053  11.65999985  49.36000061
C    20.28000069  11.97000027  49.69999695
C    21.28999901  11.75000000  48.72000122
C    22.60000038  12.02999973  49.05000305
C    22.93999863  12.43999958  50.35999680
C    21.96000099  12.68000031  51.29000092
C    20.56999969  12.51999950  50.98999786
C    16.46999931  11.90000057  50.06000137
C    15.77999973  12.39999962  51.19999695
C    14.39000034  12.51000023  51.16000366
C    24.36000061  12.82999992  50.72999954
H    24.78676033  12.16852474  51.48394012
H    19.85000038  12.92000008  52.97000122
H    18.65999985  11.26999950  48.39000320
H    21.09999847  11.40999985  47.70999908
H    23.43000031  11.77000046  48.39000320
H    22.23999977  12.88000011  52.31999969
H    13.85000038  12.79000092  52.05999756
H    24.84999847  12.61000061  49.78000259
H    24.38999939  13.89999962  50.96000290
S    13.22999954  11.21999931  47.62000275
C    10.52999973  11.18999958  48.36999893
C    11.84000015  11.46999931  48.68999863
C    12.18999958  11.87999916  50.01999664
C    11.21000099  12.13999939  50.94999695
C     9.86999989  11.82000065  50.61000061
C     8.78999996  11.92999935  51.52999878
C     7.50999975  11.59999943  51.14999771
C     7.18999958  10.93999958  49.93000031
C     8.17000008  10.92000008  48.95999908
C     9.48000050  11.38000011  49.29999924
C    13.61999989  12.13000107  50.05000305
C    14.34000015  11.77999973  48.88000107
C    15.72999954  11.69000053  48.88999939
C     5.82000017  10.42000008  49.55999756
H     5.38724184  11.00883484  48.75123596
H    10.31999969  10.72999954  47.41000366
H    11.46999931  12.42000008  51.97000122
H     8.94999981  12.42000008  52.48000336
H     6.70000029  11.84999943  51.81999969
H     8.00000000  10.57000065  47.95000076
H    16.18999863  11.43000031  47.94000244
H     5.21000004  10.62000084  50.45000076
H     5.95000029   9.36999989  49.27999878
