96

S    16.45000076  12.09000015  58.92000198
C    19.22999954  12.34000015  58.30999756
C    17.94000053  12.03999996  57.95999908
C    17.56000137  11.64999962  56.63000107
C    18.53000069  11.23999977  55.72999954
C    19.88999939  11.31999969  56.11000061
C    20.90999985  11.17000008  55.13000107
C    22.20000076  11.56000042  55.38999939
C    22.52000046  12.20999908  56.60999680
C    21.55999947  12.36999989  57.57999802
C    20.20999908  12.02999973  57.32999802
C    16.14999962  11.51000023  56.31999969
C    15.43000031  11.90999985  57.48000336
C    14.04999924  11.94000053  57.64999771
C    23.92000008  12.76000023  56.84000015
H    24.52302361  12.11441040  57.47849655
H    19.47000122  12.88000011  59.22999954
H    18.38999939  10.72999954  54.78000259
H    20.52999878  10.98999977  54.13000107
H    23.02999878  11.57999992  54.68999863
H    21.75000000  12.92000008  58.50000000
H    13.56999969  12.03999996  58.61999893
H    24.40000153  12.84999943  55.86000061
H    23.90000153  13.75000000  57.29999924
S    12.84999943  10.88999939  54.01000214
C    10.19000053  10.77000046  54.79999924
C    11.49000072  11.11999989  55.11000061
C    11.92000008  11.46000004  56.43000031
C    11.00999928  11.72000027  57.43999863
C     9.64999962  11.44999981  57.15000153
C     8.57999992  11.79999924  58.02000046
C     7.27999973  11.42000008  57.78999710
C     7.00999975  10.70000076  56.59000015
C     7.95000029  10.47000027  55.61000061
C     9.27999973  10.90000057  55.86999893
C    13.36999989  11.56000042  56.47999573
C    14.04000092  11.16000080  55.30000305
C    15.43000031  11.05000019  55.21999741
C     5.56999969  10.32999992  56.32999802
H     5.17152119  10.87790871  55.47611618
H     9.81000042  10.57999992  53.80000305
H    11.42000008  12.00000000  58.40000153
H     8.82999992  12.30000019  58.95000076
H     6.51000023  11.51999950  58.54999924
H     7.65999985  10.06000042  54.65000153
H    15.93000031  10.57000065  54.38999939
H     5.13000011  10.42000008  57.32999802
H     5.40000010   9.30000019  56.00000000
S    13.26000023   8.94999981  50.86999893
C    10.59999943   8.71000004  51.59999847
C    11.90000057   8.31999969  51.81000137
C    12.30000019   7.64999962  53.01000214
C    11.39000034   7.20000029  53.95000076
C    10.01999950   7.37999964  53.64999771
C     9.00000000   6.81999969  54.47999954
C     7.67000008   7.00000000  54.20000076
C     7.32999992   7.76000023  53.04999924
C     8.27000046   8.31999969  52.21000290
C     9.64999962   8.14999962  52.50000000
C    13.75000000   7.59000015  53.11000061
C    14.40000057   8.31999969  52.08000183
C    15.77000046   8.47999954  52.01000214
C     5.86000013   7.82999992  52.74000168
H     5.50542355   7.26976871  51.87483215
H    10.21999931   9.39000034  50.83000183
H    11.65999985   6.63999987  54.84000397
H     9.40999985   6.21000004  55.28999710
H     7.00000000   6.50000000  54.89999771
H     8.05000019   8.75000000  51.23000336
H    16.10000038   9.02999973  51.12999725
H     5.15999985   7.67000008  53.56999969
H     5.59999990   8.89000034  52.64999771
S    17.02000046   7.00000000  55.51000214
C    19.68000031   7.63999987  54.91000366
C    18.35000038   7.69000006  54.55999756
C    17.98999977   8.19000053  53.27000046
C    19.00000000   8.73000050  52.49000168
C    20.36000061   8.64999962  52.84999847
C    21.40000153   9.07999992  51.97999954
C    22.70000076   8.82999992  52.34000397
C    23.12000084   8.19999981  53.54000092
C    22.13000107   7.76999998  54.38999939
C    20.76000023   8.02999973  54.08000183
C    16.54000092   8.10000038  53.11999893
C    15.90999985   7.46999979  54.20999908
C    14.55000019   7.17000008  54.18000031
C    24.54000092   7.75000000  53.76999664
H    25.00224304   8.33313656  54.56647873
H    19.98999977   7.07999992  55.79000092
H    18.76000023   9.13999939  51.51000214
H    21.14000130   9.50000000  51.00999832
H    23.35000038   8.84000015  51.46999741
H    22.29000092   7.26999998  55.34000015
H    14.14999962   6.71000004  55.07999802
H    25.22999954   7.79999971  52.91999817
H    24.44999886   6.72999954  54.15999985
