96

S    16.57999992  12.03999996  58.88000107
C    19.29999924  12.25999928  58.25000000
C    18.02000046  11.96000004  57.84000015
C    17.67000008  11.49000072  56.53999710
C    18.71999931  11.44999981  55.65000153
C    20.06999969  11.72000027  55.98999786
C    21.09000015  11.51000023  55.01999664
C    22.32999992  12.00000000  55.34999847
C    22.65000153  12.61999989  56.59000015
C    21.63999939  12.81999969  57.50999832
C    20.32999992  12.31999969  57.27000427
C    16.23999977  11.23999977  56.37000275
C    15.52000046  11.61000061  57.52999878
C    14.14999962  11.85999966  57.50999832
C    24.09000015  12.76999950  57.01000214
H    24.58255768  11.94906807  57.53111649
H    19.52000046  12.57999992  59.27000046
H    18.47999954  11.09000015  54.65000153
H    20.88000107  11.03000069  54.06999969
H    23.12999916  11.73999977  54.65999985
H    21.88999939  13.14000034  58.52000427
H    13.71999931  12.25000000  58.43000031
H    24.68000031  12.94999981  56.10000229
H    24.23999977  13.63999939  57.67000198
S    13.07000065  10.50000000  53.92000198
C    10.36999893  10.62000084  54.61999893
C    11.68000031  10.86999989  54.95999908
C    12.02000046  11.46999931  56.22000122
C    10.98000050  11.75000000  57.09000015
C     9.63999939  11.39000034  56.79999924
C     8.60999966  11.43000031  57.77999878
C     7.36000013  10.88000107  57.60000229
C     6.98999977  10.34000015  56.33999634
C     8.00000000  10.21999931  55.40999985
C     9.32999992  10.71000004  55.56999969
C    13.47000027  11.49000072  56.33999634
C    14.18000031  11.00999928  55.20999908
C    15.54999924  10.82999992  55.21999741
C     5.58000040   9.98000050  55.93000031
H     5.14509058  10.65018845  55.18851471
H    10.19000053  10.22999954  53.61999893
H    11.13999939  12.25000000  58.04000092
H     8.73000050  11.84000015  58.77999878
H     6.63000011  11.10999966  58.36999893
H     7.71000004   9.73999977  54.47000122
H    16.11999893  10.62000084  54.31999969
H     4.98000002  10.11000061  56.83000183
H     5.65999985   8.97000027  55.50000000
S    14.15999985   8.69999981  50.63999939
C    11.51999950   8.13000011  51.22000122
C    12.84999943   7.90999985  51.52999878
C    13.22000027   7.27999973  52.76000214
C    12.20000076   6.85999966  53.60000229
C    10.84000015   7.16000032  53.39000320
C     9.81999969   6.84999990  54.33000183
C     8.48999977   7.09000015  54.08000183
C     8.11999989   7.68000031  52.84000015
C     9.11000061   8.00000000  51.93999863
C    10.48999977   7.71000004  52.09999847
C    14.60000038   7.63000011  53.09000015
C    15.19000053   8.38000011  52.04000092
C    16.52000046   8.76000023  52.14000320
C     6.72999954   8.15999985  52.52999878
H     6.26944923   7.65693665  51.67975235
H    11.28999901   8.71000004  50.33000183
H    12.36999989   6.32999992  54.54000092
H    10.11000061   6.24000025  55.19000244
H     7.73000002   6.96000004  54.84000397
H     8.97999954   8.61999989  51.05999756
H    16.82999992   9.21000004  51.19999695
H     6.01999998   8.05999947  53.36000061
H     6.76999998   9.23999977  52.35000229
S    17.85000038   7.30999994  55.54999924
C    20.56999969   7.82999992  54.85000229
C    19.22999954   7.82999992  54.54999924
C    18.73999977   8.34999943  53.29999924
C    19.61000061   8.80999947  52.32999802
C    21.00000000   8.82000065  52.57999802
C    21.97999954   9.39000034  51.70999908
C    23.28000069   9.53999996  52.11999893
C    23.71000099   9.13999939  53.40999985
C    22.80999947   8.50000000  54.22999954
C    21.42999840   8.43999958  53.89999771
C    17.28999901   8.30999947  53.22000122
C    16.62999916   7.69000006  54.31000137
C    15.27999973   7.39000034  54.27999878
C    25.13999939   9.35000038  53.86000061
H    25.46606445   8.76166344  54.71769714
H    20.71000099   7.40999985  55.84000015
H    19.13999939   8.93000031  51.35000229
H    21.80000114   9.61999989  50.66999817
H    24.05999947  10.05000019  51.55000305
H    23.08000183   8.01999950  55.17000198
H    14.70000076   6.90000010  55.06999969
H    25.27000046  10.40999985  54.10999680
H    25.78000069   9.19000053  52.98999786
