96

S    16.47999954  11.61999893  59.00000000
C    19.17000008  11.75000000  58.29000092
C    17.86999893  11.54000092  57.90999985
C    17.46999931  11.00999928  56.63999939
C    18.46999931  10.92000008  55.68000031
C    19.81999969  11.23999977  55.96000290
C    20.81000137  11.13999939  54.93999863
C    22.11000061  11.46999931  55.22999573
C    22.42000198  11.96000004  56.52999878
C    21.51000023  12.05000019  57.55000305
C    20.17000008  11.67000008  57.29000092
C    16.02000046  10.88000107  56.52000046
C    15.32999992  11.16000080  57.71999741
C    13.94000053  11.16000080  57.72999573
C    23.81000137  12.36999989  56.97000122
H    24.27999687  11.71485424  57.70347977
H    19.47000122  11.96000004  59.31999969
H    18.26000023  10.57999992  54.66999817
H    20.48000145  10.75000000  53.97999573
H    22.82999992  11.26999950  54.45000076
H    21.61999893  12.68000031  58.43999863
H    13.43999958  11.44999981  58.64999771
H    24.43000031  12.43999958  56.06999969
H    23.78000069  13.40000057  57.35000229
S    12.89000034  10.13000011  54.05000305
C    10.14999962  10.21999931  54.59000015
C    11.44000053  10.47999954  55.00999832
C    11.76000023  10.95999908  56.31999969
C    10.73999977  11.06999969  57.23999786
C     9.39000034  10.82999992  56.88000107
C     8.34999943  10.90999985  57.84000015
C     7.03999996  10.78999996  57.43999863
C     6.71999979  10.32999992  56.13999939
C     7.73000002  10.21000004  55.20999908
C     9.10000038  10.44000053  55.52000046
C    13.20000076  10.95000076  56.56000137
C    13.93000031  10.54999924  55.41999817
C    15.31999969  10.48999977  55.37000275
C     5.36999989   9.72000027  55.83000183
H     4.95858574  10.20234680  54.94333267
H    10.01999950  10.03000069  53.53000259
H    10.95999908  11.30000019  58.27999878
H     8.47999954  11.10000038  58.89999771
H     6.24000025  10.69000053  58.18000031
H     7.49000025   9.86999989  54.20999908
H    15.77999973  10.22999954  54.43000031
H     4.69000006   9.98999977  56.63999939
H     5.35000038   8.63000011  55.73999786
S    17.05999947  12.07999992  52.70000076
C    19.78999901  12.39999962  52.11999893
C    18.53000069  12.02999973  51.70999908
C    18.12000084  11.72000027  50.38000107
C    19.17000008  11.59999943  49.48999786
C    20.52000046  11.87000084  49.85000229
C    21.59000015  11.57999992  48.95999908
C    22.88000107  11.96000004  49.26000214
C    23.21000099  12.28000069  50.59999847
C    22.21999931  12.38999939  51.55000305
C    20.85000038  12.27000046  51.18999863
C    16.68000031  11.57999992  50.21999741
C    15.90999985  11.89000034  51.37000275
C    14.52999973  11.77000046  51.50000000
C    24.64999962  12.60000038  50.96000290
H    25.05594063  12.05874634  51.81461334
H    20.00999832  12.69000053  53.15000153
H    18.98999977  11.18000031  48.50999832
H    21.32999802  11.25000000  47.95999908
H    23.59000015  12.03999996  48.43999863
H    22.50000000  12.68000031  52.56000137
H    14.11000061  11.92999935  52.49000168
H    25.22999954  12.31999969  50.06999969
H    24.73999977  13.68000031  51.10000229
S    13.52000046  10.85000038  47.81000137
C    10.77999973  10.67999935  48.43999863
C    12.06999969  11.00000000  48.81999969
C    12.38000011  11.52999973  50.11000061
C    11.28999901  11.72000027  50.93999863
C     9.96000004  11.42000008  50.58000183
C     8.85000038  11.54999924  51.45999908
C     7.57000017  11.13999939  51.13999939
C     7.32999992  10.54999924  49.86999893
C     8.38000011  10.26999950  49.02000046
C     9.65999985  10.81999969  49.29999924
C    13.81999969  11.52999973  50.31000137
C    14.59000015  11.31999969  49.13999939
C    15.97000027  11.11999989  49.09999847
C     5.89999962  10.26999950  49.48999786
H     5.48613310  10.64818859  48.55523300
H    10.60999966  10.17000008  47.50000000
H    11.56000042  11.79999924  51.98999786
H     9.02999973  11.87000084  52.48000336
H     6.76999998  11.44999981  51.79999924
H     8.36000061   9.84000015  48.02000046
H    16.48999977  10.90000057  48.18000031
H     5.31000042  10.57999992  50.35999680
H     5.75000000   9.18000031  49.52999878
