96

S    16.60000038  12.18000031  58.77999878
C    19.29999924  12.15999985  58.04000092
C    18.00000000  11.80999947  57.75000000
C    17.65999985  10.98000050  56.63000107
C    18.63000107  10.78999996  55.66999817
C    19.96999931  11.23000050  55.84000015
C    21.01000023  10.95999908  54.91000366
C    22.34999847  11.21000099  55.13999939
C    22.65000153  11.84999943  56.37000275
C    21.67000008  12.13000107  57.29999924
C    20.30999947  11.78999996  57.11999893
C    16.21999931  11.00999928  56.39999771
C    15.52999973  11.51999950  57.52999878
C    14.14000034  11.61999893  57.58999634
C    24.03000069  12.39999962  56.66999817
H    24.56330109  11.88091946  57.46639252
H    19.60000038  12.75000000  58.89999771
H    18.47999954  10.43000031  54.65000153
H    20.68000031  10.53999996  53.95999908
H    23.02999878  11.03000069  54.31999969
H    21.90000153  12.56999969  58.27000046
H    13.63000011  12.00000000  58.47000122
H    24.64999962  12.30999947  55.77000046
H    23.97000122  13.47000027  56.90999985
S    13.10999966  10.21999931  53.96999741
C    10.42000008  10.38000011  54.61999893
C    11.71000004  10.73999977  54.92000198
C    12.02000046  11.25000000  56.23000336
C    10.95000076  11.44000053  57.08000183
C     9.59999943  11.14999962  56.81999969
C     8.60000038  11.33999920  57.81999969
C     7.30999994  10.98999977  57.50999832
C     7.00000000  10.44999981  56.24000168
C     7.97999954  10.25000000  55.28999710
C     9.34000015  10.60999966  55.51000214
C    13.47000027  11.31999969  56.39999771
C    14.14999962  10.72999954  55.31000137
C    15.52999973  10.53999996  55.27999878
C     5.59999990   9.94000053  55.94999695
H     5.13007450  10.49536705  55.13830948
H    10.05000019  10.14999962  53.62999725
H    11.25000000  11.78999996  58.06999969
H     8.85000038  11.79999924  58.76999664
H     6.48000002  11.02000046  58.20999908
H     7.77999973   9.72000027  54.36000061
H    16.04999924  10.03999901  54.47000122
H     5.00000000  10.11999989  56.84999847
H     5.61999989   8.86999989  55.75000000
S    13.63000011   8.32999992  50.76000214
C    10.90000057   7.97999954  51.31000137
C    12.20999908   7.79999971  51.68000031
C    12.63000011   7.07999992  52.84999847
C    11.64000034   6.57999992  53.68000031
C    10.29000092   6.88000011  53.41999817
C     9.27999973   6.48000002  54.34000015
C     7.96000004   6.50000000  53.99000168
C     7.62000036   7.32999992  52.88000107
C     8.52999973   8.01000023  52.11000061
C     9.89000034   7.62000036  52.25000000
C    14.06000042   7.03000021  53.06000137
C    14.73000050   7.67000008  51.98999786
C    16.05999947   8.06999969  52.05999756
C     6.17999983   7.72000027  52.67000198
H     5.83995819   7.35870600  51.69946671
H    10.52000046   8.69999981  50.59000015
H    11.84000015   6.02999973  54.59999847
H     9.63999939   5.88000011  55.18000031
H     7.22000027   6.07999992  54.66999817
H     8.10000038   8.65999985  51.35000229
H    16.47999954   8.55000019  51.18000031
H     5.61999989   7.42999983  53.56999969
H     6.06999969   8.80999947  52.72999573
S    17.21999931   6.63000011  55.56999969
C    19.90999985   7.17999983  55.01999664
C    18.57999992   7.34000015  54.68999863
C    18.20999908   7.95000029  53.44999695
C    19.17000008   8.34999943  52.52999878
C    20.53999901   8.14000034  52.80000305
C    21.54999924   8.64999962  51.93999863
C    22.88999939   8.45000076  52.18999863
C    23.22999954   7.68000031  53.33000183
C    22.27999878   7.26000023  54.22999954
C    20.88999939   7.48000050  54.03999710
C    16.79999924   7.71000004  53.18999863
C    16.14999962   6.91999960  54.18000031
C    14.84000015   6.48000002  54.09000015
C    24.70000076   7.50999975  53.63999939
H    25.13490868   8.18018913  54.38148499
H    20.31999969   6.70000029  55.90000153
H    18.90999985   8.82999992  51.59000015
H    21.18999863   9.25000000  51.11000061
H    23.64999962   8.78999996  51.49000168
H    22.59000015   6.93000031  55.21999741
H    14.40000057   5.75999975  54.78000259
H    25.26000023   7.50000000  52.70000076
H    24.77000046   6.46000004  53.97999573
