96

S    16.86000061  12.74000072  58.81999969
C    19.57999992  12.86000061  58.11000061
C    18.30000114  12.43999958  57.81999969
C    17.92000008  11.77000046  56.62000275
C    18.92000008  11.52999973  55.70000076
C    20.27000046  11.87000084  55.94999695
C    21.35999870  11.63000011  55.06000137
C    22.69000053  11.77000046  55.38000107
C    22.95999908  12.46000099  56.58000183
C    21.96000099  12.84999943  57.44999695
C    20.59999847  12.53999901  57.18000031
C    16.48999977  11.54000092  56.45999908
C    15.78999996  11.98999977  57.62000275
C    14.40999985  12.15000057  57.57999802
C    24.37000084  12.84999943  56.97999954
H    24.71295738  12.22124290  57.80167389
H    19.84000015  13.48000050  58.96999741
H    18.60000038  11.03000069  54.79000092
H    21.05999947  11.21999931  54.09999847
H    23.45999908  11.44000053  54.69999695
H    22.06000137  13.48000050  58.31999969
H    13.89000034  12.64000034  58.39000320
H    25.09000015  12.76999950  56.14999771
H    24.31999969  13.90999985  57.25000000
S    13.36999989  10.80999947  53.95999908
C    10.59999943  11.03000069  54.47999954
C    11.90999985  11.30000019  54.81999969
C    12.30000019  11.90000057  56.05999756
C    11.25000000  12.18000031  56.90999985
C     9.89999962  11.87999916  56.60999680
C     8.80999947  12.06999969  57.50000000
C     7.53000021  11.64000034  57.23999786
C     7.18999958  11.00000000  56.02000427
C     8.19000053  10.82999992  55.08999634
C     9.52000046  11.26000023  55.37000275
C    13.71999931  11.85999966  56.39999771
C    14.42000008  11.32999992  55.28999710
C    15.78999996  11.09000015  55.34000015
C     5.82999992  10.47999954  55.61999893
H     5.28938055  11.12020683  54.92288589
H    10.38000011  10.44000053  53.59000397
H    11.39999962  12.67000008  57.87000275
H     9.11000061  12.30999947  58.52000427
H     6.80000019  11.73999977  58.04000092
H     7.88999987  10.47999954  54.10999680
H    16.20000076  10.59999943  54.45000076
H     5.23999977  10.26000023  56.52000046
H     6.05000019   9.48000050  55.20999908
S    13.30999947   8.78000069  50.75000000
C    10.65000057   8.53999996  51.45000076
C    11.96000004   8.22000027  51.75000000
C    12.41000080   7.63000011  52.97999954
C    11.36999989   7.26000023  53.80000305
C     9.98999977   7.50999975  53.56999969
C     8.97999954   6.91999960  54.36999893
C     7.63999987   7.02000046  54.05000305
C     7.26000023   7.75000000  52.88999939
C     8.22000027   8.40999985  52.15999985
C     9.61000061   8.21000004  52.36000061
C    13.86999989   7.64999962  53.09000015
C    14.48999977   8.23999977  51.95999908
C    15.80999947   8.64999962  52.08000183
C     5.82000017   7.92999983  52.47000122
H     5.64268875   7.46899080  51.49833679
H    10.52000046   9.13000011  50.56000137
H    11.54999924   6.51999998  54.58000183
H     9.30999947   6.34999990  55.22999573
H     6.93000031   6.57000017  54.72999954
H     8.01000023   8.76999950  51.14999771
H    16.26000023   9.25000000  51.30000305
H     5.09999990   7.55000019  53.20999908
H     5.53999996   8.97999954  52.34000397
S    17.04000092   7.31999969  55.56000137
C    19.75000000   7.73999977  54.94999695
C    18.43000031   7.94000053  54.64000320
C    18.02000046   8.45000076  53.36999893
C    18.94000053   9.06000042  52.54000092
C    20.29999924   8.98999977  52.90999985
C    21.28999901   9.56999969  52.06999969
C    22.63000107   9.44999981  52.32999802
C    23.05999947   8.71000004  53.47000122
C    22.13000107   8.19999981  54.34999847
C    20.73999786   8.26000023  54.06999969
C    16.57999992   8.26000023  53.18000031
C    15.88999939   7.63999987  54.25000000
C    14.52999973   7.32999992  54.27999878
C    24.51000023   8.32999992  53.66000366
H    25.00792885   8.62164402  54.58472443
H    20.03999901   7.18999958  55.84000015
H    18.71999931   9.55999947  51.59999847
H    20.95999908   9.98999977  51.11999893
H    23.32999992   9.94999981  51.66999817
H    22.52000046   7.53999996  55.12000275
H    13.86000061   7.07000017  55.08999634
H    25.03999901   8.80000019  52.81999969
H    24.40000153   7.26000023  53.48999786
