96

S    16.61000061  11.92000008  58.88999939
C    19.29000092  12.02000046  58.18000031
C    18.02000046  11.61000061  57.85999680
C    17.67000008  11.02000046  56.60999680
C    18.68000031  10.93999958  55.66999817
C    20.02000046  11.26000023  55.97999954
C    21.09000015  11.00999928  55.06000137
C    22.39999962  11.31000042  55.33000183
C    22.72999954  11.90999985  56.58000183
C    21.71999931  12.13000107  57.48000336
C    20.35000038  11.78999996  57.27000427
C    16.21999931  10.85999966  56.52999878
C    15.48999977  11.36000061  57.63999939
C    14.09999943  11.44000053  57.62000275
C    24.11999893  12.38999939  56.93000031
H    24.62339211  11.64554596  57.54683685
H    19.47000122  12.42000008  59.18000031
H    18.55999947  10.65000057  54.62999725
H    20.96999931  10.50000000  54.10999680
H    23.19000053  11.07999992  54.61999893
H    22.01999855  12.43999958  58.47999954
H    13.64999962  11.82999992  58.53000259
H    24.68000031  12.61000061  56.00999832
H    24.06999969  13.36999989  57.41000366
S    12.98999977  10.19000053  54.03999710
C    10.22999954  10.34999943  54.66999817
C    11.54999924  10.59999943  55.00000000
C    11.90999985  11.02000046  56.31999969
C    10.93000031  11.23000050  57.25999832
C     9.55999947  11.03999996  56.95000076
C     8.48999977  11.21999931  57.88000107
C     7.20000029  10.90999985  57.54000092
C     6.90999985  10.39000034  56.25000000
C     7.86000013  10.42000008  55.25000000
C     9.21000004  10.62999916  55.61999893
C    13.35999966  11.03999996  56.50000000
C    14.07999992  10.48999977  55.40999985
C    15.46000004  10.36000061  55.45999908
C     5.47999954  10.01999950  55.94999695
H     4.97565651  10.61668777  55.18992996
H    10.07999992   9.78999996  53.75000000
H    11.10999966  11.32999992  58.33000183
H     8.64999962  11.54999924  58.89999771
H     6.43000031  11.10000038  58.27999878
H     7.71000004  10.22999954  54.18000031
H    16.03000069  10.19999981  54.54999924
H     4.90000010  10.15999985  56.86999893
H     5.45000029   8.94999981  55.70999908
S    16.98999977  12.18999958  53.04000092
C    19.70999908  12.57999992  52.31999969
C    18.44000053  12.17000008  52.01000214
C    18.12000084  11.65999985  50.70999908
C    19.17000008  11.44000053  49.84000397
C    20.51000214  11.76000023  50.14999771
C    21.56999969  11.68000031  49.20000076
C    22.84000015  12.13999939  49.45999908
C    23.09000015  12.72999954  50.72000122
C    22.13000107  12.74000072  51.70999908
C    20.79999924  12.34000015  51.44000244
C    16.69000053  11.47999954  50.54000092
C    15.90999985  11.77000046  51.69000244
C    14.52999973  11.90000057  51.68000031
C    24.47999954  13.19000053  51.11999893
H    25.03081322  12.41742992  51.65650558
H    19.93999863  13.05999947  53.27000046
H    19.05999947  11.14999962  48.80000305
H    21.28000069  11.21000099  48.27000046
H    23.65999985  12.05999947  48.75000000
H    22.27999878  13.22000027  52.68000031
H    13.96999931  12.00000000  52.60000229
H    25.00000000  13.55999947  50.21999741
H    24.37999916  14.06000042  51.77999878
S    13.50999928  10.67999935  48.04999924
C    10.78999996  10.67999935  48.55999756
C    12.03999996  11.05999947  48.97999573
C    12.38000011  11.54999924  50.27999878
C    11.31999969  11.77999973  51.14999771
C    10.01999950  11.36000061  50.77999878
C     8.93000031  11.43000031  51.69000244
C     7.63999987  11.09000015  51.36000061
C     7.35000038  10.47000027  50.11000061
C     8.40999985  10.32999992  49.23999786
C     9.72000027  10.82999992  49.47999954
C    13.81000042  11.64000034  50.50000000
C    14.55999947  11.21999931  49.36999893
C    15.93999958  11.05999947  49.43999863
C     5.95000029  10.19999981  49.62999725
H     5.43870497  11.09476662  49.27493286
H    10.57999992  10.03999901  47.70999908
H    11.49000072  12.13999939  52.15999985
H     9.09000015  11.90000057  52.65999603
H     6.80000019  11.23000050  52.02999878
H     8.38999939   9.70000076  48.36000061
H    16.40999985  10.65000057  48.54999924
H     5.31000042   9.92999935  50.47999954
H     5.89999962   9.31999969  48.97999573
