96

S    16.81999969  12.39999962  58.76999664
C    19.55000114  12.35999966  58.13999939
C    18.26000023  11.97999954  57.83000183
C    17.89999962  11.49000072  56.52999878
C    18.86999893  11.23999977  55.58000183
C    20.22999954  11.46000004  55.91999817
C    21.28999901  11.21000099  55.00000000
C    22.52000046  11.77999973  55.20999908
C    22.78000069  12.51999950  56.38999939
C    21.87000084  12.53000069  57.42000198
C    20.55000114  12.03999996  57.19999695
C    16.46000099  11.51000023  56.32999802
C    15.72999954  12.05999947  57.42000198
C    14.34000015  12.10000038  57.48000336
C    24.15999985  13.12000084  56.50000000
H    24.67903519  12.53697491  57.26077652
H    19.72999954  12.96000004  59.03999710
H    18.64999962  10.95000076  54.55999756
H    20.89999962  10.71000004  54.12000275
H    23.29999924  11.76000023  54.45999908
H    22.04999924  13.12000084  58.31999969
H    13.80000019  12.35000038  58.39000320
H    24.67000008  13.26000023  55.54000092
H    24.03000069  14.14000034  56.88000107
S    13.31999969  10.52000046  53.95000076
C    10.55999947  10.47999954  54.54999924
C    11.85999966  10.78999996  54.91000366
C    12.22000027  11.32999992  56.18999863
C    11.21999931  11.36999989  57.14000320
C     9.89000034  10.98999977  56.84000015
C     8.84000015  11.23000050  57.76000214
C     7.57000017  10.88000107  57.36000061
C     7.21000004  10.46000004  56.04999924
C     8.19000053  10.32999992  55.10000229
C     9.52999973  10.52999973  55.52000046
C    13.63999939  11.61000061  56.37000275
C    14.35999966  11.14999962  55.25000000
C    15.75000000  11.06999969  55.20000076
C     5.75000000  10.22999954  55.72999954
H     5.36461067  10.93654633  54.99490356
H    10.34999943  10.29000092  53.50000000
H    11.49000072  11.75000000  58.11999893
H     9.06999969  11.71000004  58.70999908
H     6.75000000  10.98999977  58.06999969
H     7.94000053  10.11999989  54.06000137
H    16.28999901  10.59999943  54.38999939
H     5.22000027  10.06000042  56.68000031
H     5.75000000   9.23999977  55.25000000
S    13.45000076   8.50000000  50.96000290
C    10.81999969   7.92999983  51.68000031
C    12.17000008   7.75000000  51.91999817
C    12.61000061   7.11999989  53.13000107
C    11.64999962   6.65999985  54.01000214
C    10.26000023   6.84000015  53.82999802
C     9.22000027   6.40999985  54.71000290
C     7.90000010   6.53999996  54.36999893
C     7.49000025   7.26000023  53.22000122
C     8.47000027   7.76000023  52.38999939
C     9.85000038   7.49000025  52.61000061
C    14.06000042   7.28999996  53.22999954
C    14.63000107   8.11999989  52.22999954
C    15.95999908   8.52000046  52.34000397
C     6.06999969   7.76999998  53.06999969
H     5.53048372   7.38665915  52.20393372
H    10.46000004   8.45000076  50.79999924
H    11.94000053   6.17000008  54.93000031
H     9.48000050   6.14000034  55.72999954
H     7.20000029   6.28000021  55.15999603
H     8.18000031   8.27999973  51.47999573
H    16.36999893   9.19999981  51.59999847
H     5.56999969   7.36000013  53.95999908
H     5.97000027   8.85999966  53.18000031
S    17.31999969   6.98999977  55.73999786
C    20.00999832   7.42000008  54.97000122
C    18.67000008   7.57000017  54.73999786
C    18.22999954   8.14000034  53.50000000
C    19.18000031   8.69000053  52.65999603
C    20.56999969   8.59000015  52.90999985
C    21.54000092   9.13000011  52.02000046
C    22.86999893   8.89999962  52.28000259
C    23.31999969   8.34000015  53.50000000
C    22.39999962   7.94000053  54.45000076
C    21.02000046   7.96000004  54.12000275
C    16.79000092   8.01000023  53.34000015
C    16.18000031   7.35000038  54.43999863
C    14.84000015   6.97000027  54.34000015
C    24.77999878   8.06999969  53.75999832
H    25.02129555   8.23322964  54.81034851
H    20.38999939   6.80999994  55.77999878
H    18.95000076   9.06999969  51.66999817
H    21.18000031   9.52999973  51.06999969
H    23.59999847   9.36999989  51.63000107
H    22.69000053   7.46000004  55.38000107
H    14.35999966   6.51000023  55.20000076
H    25.38999939   8.73999977  53.13999939
H    25.00000000   7.00999975  53.55999756
