96

S    16.59000015  11.98999977  58.87000275
C    19.29999924  12.02999973  58.11999893
C    18.00000000  11.69000053  57.83000183
C    17.63000107  11.26000023  56.52000046
C    18.53999901  11.09000015  55.48999786
C    19.85999870  11.51000023  55.79000092
C    20.88000107  11.44000053  54.79000092
C    22.19000053  11.79999924  54.95999908
C    22.53000069  12.28999996  56.25000000
C    21.61000061  12.35000038  57.27000427
C    20.29000092  11.82999992  57.11999893
C    16.18999863  11.06999969  56.39999771
C    15.50000000  11.50000000  57.56000137
C    14.11000061  11.56000042  57.65999603
C    23.81000137  13.07000065  56.45999908
H    24.43208122  12.44792080  57.10353088
H    19.51000023  12.61999989  59.01000214
H    18.27000046  10.76000023  54.48999786
H    20.56999969  10.86999989  53.90999603
H    22.88000107  11.71000004  54.13000107
H    21.76000214  12.94000053  58.16999817
H    13.73000050  11.94000053  58.60000229
H    24.37000084  13.26000023  55.54000092
H    23.52000046  14.01999950  56.91999817
S    12.92000008  10.38000011  54.09000015
C    10.21000004  10.51000023  54.65000153
C    11.50000000  10.64000034  55.12000275
C    11.87999916  11.03999996  56.44000244
C    10.85999966  11.31000042  57.31999969
C     9.51000023  11.28999901  56.90000153
C     8.40999985  11.56000042  57.77000046
C     7.11999989  11.51999950  57.29000092
C     6.76000023  10.93999958  56.04000092
C     7.81000042  10.71000004  55.19000244
C     9.18000031  10.85999966  55.56999969
C    13.32999992  11.03999996  56.62000275
C    14.02999973  10.60999966  55.45999908
C    15.40999985  10.62999916  55.31999969
C     5.35000038  10.52000046  55.66999817
H     4.82130575  11.13442898  54.94126129
H     9.98000050   9.94999981  53.75000000
H    11.14999962  11.64000034  58.31999969
H     8.57999992  11.73999977  58.81999969
H     6.28999996  11.59000015  57.98999786
H     7.77999973  10.15999985  54.26000214
H    15.93999958  10.39999962  54.40000153
H     4.88000011  10.43000031  56.65999985
H     5.42000008   9.47000027  55.35999680
S    17.26000023  12.38000011  52.77000046
C    19.92000008  12.69000053  52.00000000
C    18.63999939  12.31999969  51.65000153
C    18.20999908  11.87999916  50.35999680
C    19.15999985  11.90000057  49.34999847
C    20.50000000  12.17000008  49.68999863
C    21.60000038  11.97000027  48.80000305
C    22.90999985  12.28999996  49.06000137
C    23.28000069  12.81000042  50.33000183
C    22.27999878  12.94000053  51.26999664
C    20.92000008  12.57999992  51.00000000
C    16.79999924  11.52999973  50.28999710
C    16.13999939  11.82000065  51.51000214
C    14.75999928  11.94000053  51.53999710
C    24.67000008  13.34000015  50.61000061
H    25.16822433  12.74924850  51.37869263
H    20.15999985  13.15999985  52.94000244
H    19.01000023  11.56000042  48.33000183
H    21.38999939  11.72999954  47.77000046
H    23.61999893  12.23000050  48.23999786
H    22.47999954  13.36999989  52.23999786
H    14.40000057  11.90000057  52.56000137
H    25.15000153  13.36999989  49.61999893
H    24.48999786  14.37000084  50.93999863
S    13.55000019  11.18999958  47.84000015
C    10.90000057  10.98000050  48.59000397
C    12.18000031  11.31999969  48.95999908
C    12.53000069  11.80999947  50.26000214
C    11.46999931  12.10000038  51.10000229
C    10.14000034  11.77000046  50.76000214
C     9.06999969  11.89000034  51.70000076
C     7.85000038  11.31999969  51.45000076
C     7.51999950  10.72999954  50.20000076
C     8.48999977  10.73999977  49.22999954
C     9.81999969  11.19999981  49.47999954
C    13.97999954  11.84000015  50.38000107
C    14.65999985  11.59000015  49.15999985
C    16.01000023  11.26999950  49.15000153
C     6.12999964  10.22999954  49.86000061
H     5.54630375  10.94182491  49.27630234
H    10.78999996  10.34999943  47.70999908
H    11.63000011  12.43000031  52.11999893
H     9.31999969  12.38999939  52.63000107
H     7.07999992  11.30000019  52.22000122
H     8.30999947  10.25000000  48.27999878
H    16.50000000  10.95999908  48.22999954
H     5.56999969  10.06000042  50.77999878
H     6.07999992   9.21000004  49.47000122
