96

S    16.51000023  12.25999928  58.83999634
C    19.18000031  12.35999966  58.20000076
C    17.90999985  12.02999973  57.77000046
C    17.48999977  11.61000061  56.46999741
C    18.50000000  11.33999920  55.56000137
C    19.81999969  11.72999954  55.89000320
C    20.92000008  11.46999931  55.02999878
C    22.23999977  11.72999954  55.31000137
C    22.53000069  12.28999996  56.58000183
C    21.52000046  12.50000000  57.48000336
C    20.15000153  12.27000046  57.18000031
C    16.03999901  11.52999973  56.38000107
C    15.34000015  11.92999935  57.55000305
C    13.94999981  12.03999996  57.58999634
C    23.92999840  12.75000000  56.91999817
H    24.41927338  12.09763527  57.64327621
H    19.52000046  12.81000042  59.13999939
H    18.29000092  10.98999977  54.54999924
H    20.61000061  11.03999996  54.08000183
H    23.02000046  11.59000015  54.55999756
H    21.68000031  12.94000053  58.46000290
H    13.52000046  12.35999966  58.53000259
H    24.60000038  12.68000031  56.04999924
H    23.88000107  13.80000019  57.21000290
S    12.79000092  10.85000038  53.97999573
C    10.08999920  11.03999996  54.68999863
C    11.40999985  11.21000099  55.04000092
C    11.73999977  11.56999969  56.38000107
C    10.77000046  11.77000046  57.34000397
C     9.39999962  11.54999924  57.08000183
C     8.38000011  11.47999954  58.08000183
C     7.11000013  11.05999947  57.75000000
C     6.76000023  10.81999969  56.38999939
C     7.77999973  10.77000046  55.47000122
C     9.11999989  11.17000008  55.72000122
C    13.19000053  11.72000027  56.45999908
C    13.89000034  11.31999969  55.30000305
C    15.27999973  11.28999901  55.24000168
C     5.33999968  10.44000053  56.04999924
H     4.93524170  10.95127392  55.17657471
H     9.77000046  10.51000023  53.80000305
H    11.13000011  11.95000076  58.34999847
H     8.55000019  11.63000011  59.13999939
H     6.39999962  10.93000031  58.55999756
H     7.55999994  10.52999973  54.43000031
H    15.73999977  10.93000031  54.31999969
H     4.69000006  10.67000008  56.90000153
H     5.19999981   9.35999966  55.90999985
S    13.68999958   9.09000015  50.93000031
C    10.98000050   8.53999996  51.35000229
C    12.28999996   8.42000008  51.77999878
C    12.67000008   7.75000000  52.98999786
C    11.67000008   7.31999969  53.82999802
C    10.31999969   7.68000031  53.59000397
C     9.30000019   7.23999977  54.47999954
C     7.96999979   7.28999996  54.15999985
C     7.62000036   7.86000013  52.90000153
C     8.59000015   8.23999977  52.00000000
C     9.98000050   8.14999962  52.28000259
C    14.09999943   7.77999973  53.27999878
C    14.73999977   8.47000027  52.22000122
C    16.07999992   8.85000038  52.31999969
C     6.21999979   8.34000015  52.58999634
H     5.68527317   7.78388453  51.81999588
H    10.80999947   9.00000000  50.38000107
H    11.82999992   6.83000040  54.79000092
H     9.59000015   6.84999990  55.45999908
H     7.20000029   6.94000006  54.84000397
H     8.22000027   8.61999989  51.04999924
H    16.61000061   9.36999989  51.52999878
H     5.73000002   8.56000042  53.54999924
H     6.38999987   9.32999992  52.15000153
S    17.19000053   7.62000036  55.91999817
C    19.90999985   7.69999981  55.24000168
C    18.60000038   7.92000008  54.87999725
C    18.23999977   8.52999973  53.63999939
C    19.22999954   8.89000034  52.74000168
C    20.56999969   8.52999973  52.98999786
C    21.63000107   9.02000046  52.16999817
C    22.95000076   8.85999966  52.50999832
C    23.21000099   8.14000034  53.70999908
C    22.27000046   7.69999981  54.59999847
C    20.90999985   7.96000004  54.27000046
C    16.79999924   8.46000004  53.46000290
C    16.10000038   7.86000013  54.54000092
C    14.78999996   7.42999983  54.45000076
C    24.63999939   7.76000023  54.02999878
H    24.98123360   8.27895832  54.92573547
H    20.17999840   7.20000029  56.17000198
H    18.89000130   9.44999981  51.86999893
H    21.31999969   9.71000004  51.38999939
H    23.68000031   9.21000004  51.79000092
H    22.55000114   7.26000023  55.56000137
H    14.22000027   7.00000000  55.27000046
H    25.35000038   7.95000029  53.22000122
H    24.60000038   6.67000008  54.15000153
