96

S    16.64999962  12.38999939  58.70999908
C    19.44000053  12.28999996  58.11000061
C    18.12999916  11.97999954  57.83000183
C    17.71000099  11.26000023  56.65999985
C    18.72999954  10.86999989  55.79999924
C    20.06999969  11.26000023  56.00999832
C    21.11000061  11.03999996  55.06000137
C    22.43000031  11.25000000  55.38000107
C    22.79999924  11.85999966  56.60999680
C    21.84000015  12.13999939  57.56000137
C    20.48999977  11.84000015  57.25999832
C    16.28000069  11.16000080  56.44000244
C    15.52000046  11.69999981  57.51999664
C    14.14000034  11.82000065  57.60000229
C    24.21999931  12.35999966  56.70999908
H    24.64766121  11.82542515  57.55819321
H    19.61000061  12.81000042  59.05000305
H    18.42000008  10.39000034  54.87999725
H    20.81999969  10.57000065  54.12000275
H    23.13999939  10.73999977  54.72999954
H    22.09000015  12.72999954  58.43999863
H    13.78000069  12.18999958  58.55999756
H    24.84999847  12.35000038  55.80999756
H    24.20000076  13.43999958  56.88999939
S    13.05999947  10.29000092  54.15000153
C    10.31000042  10.52999973  54.79999924
C    11.63000011  10.67999935  55.13000107
C    11.94000053  11.31999969  56.38000107
C    10.90999985  11.69999981  57.21000290
C     9.53999996  11.46000004  56.93000031
C     8.47000027  11.61000061  57.85999680
C     7.17000008  11.31999969  57.52999878
C     6.84999990  10.85999966  56.22000122
C     7.86999989  10.62999916  55.31999969
C     9.22999954  10.90000057  55.63999939
C    13.38999939  11.39000034  56.50000000
C    14.14999962  10.88999939  55.41999817
C    15.52000046  10.67999935  55.37000275
C     5.50000000  10.26000023  55.91999817
H     4.98845482  10.88522148  55.18820572
H    10.03999901  10.24000072  53.79000092
H    11.18000031  12.13999939  58.16999817
H     8.80000019  11.97999954  58.82999802
H     6.37000036  11.36999989  58.26000214
H     7.60999966  10.25000000  54.34000015
H    16.03999901  10.14999962  54.56999969
H     4.90000010  10.13000011  56.83000183
H     5.59999990   9.23999977  55.51000214
S    13.21000004   8.18000031  50.93000031
C    10.50000000   8.01000023  51.76000214
C    11.84000015   7.76999998  51.97999954
C    12.28999996   7.22000027  53.22000122
C    11.36999989   6.83000040  54.16999817
C     9.98999977   6.94999981  53.93000031
C     9.02000046   6.44000006  54.84000397
C     7.68000031   6.54999971  54.52000046
C     7.21000004   7.14999962  53.31999969
C     8.14000034   7.64999962  52.43999863
C     9.53999996   7.53999996  52.69000244
C    13.73999977   7.30000019  53.33000183
C    14.37999916   7.94000053  52.23999786
C    15.72999954   8.27000046  52.18999863
C     5.75000000   7.40999985  53.06999969
H     5.40190220   7.02638197  52.11095428
H    10.15999985   8.52999973  50.87999725
H    11.76000023   6.54999971  55.14999771
H     9.39999962   5.97000027  55.73999786
H     7.02000046   6.10000038  55.26000214
H     7.88000011   8.27999973  51.59000015
H    16.20000076   8.80000019  51.37000275
H     5.19999981   7.09000015  53.95999908
H     5.64000034   8.50000000  53.06000137
S    16.95000076   6.84000015  55.72999954
C    19.65999985   7.25000000  55.06999969
C    18.32999992   7.36999989  54.73999786
C    17.93000031   7.88999987  53.47000122
C    18.85000038   8.42000008  52.58999634
C    20.20999908   8.21000004  52.90999985
C    21.21000099   8.64999962  51.98999786
C    22.56000137   8.63000011  52.23999786
C    22.96999931   7.96999979  53.41999817
C    22.06999969   7.50999975  54.36000061
C    20.65999985   7.63999987  54.15000153
C    16.48999977   7.79999971  53.27000046
C    15.85000038   7.18999958  54.38999939
C    14.47999954   6.96000004  54.47000122
C    24.44000053   7.68000031  53.66000366
H    24.74648476   7.91520977  54.67924118
H    19.93000031   6.88000011  56.04999924
H    18.48999977   8.76999950  51.63000107
H    20.69000053   9.11999989  51.14999771
H    23.15999985   9.02000046  51.42000198
H    22.39999962   6.98999977  55.25000000
H    13.89000034   6.63000011  55.31999969
H    24.96000099   8.19000053  52.84999847
H    24.75000000   6.63999987  53.53000259
