96

S    16.95999908  12.18000031  58.81999969
C    19.61000061  12.23000050  58.13000107
C    18.34000015  11.87000084  57.75000000
C    17.94999886  11.31000042  56.49000168
C    18.97999954  11.14999962  55.56999969
C    20.31999969  11.31999969  55.97000122
C    21.40999985  11.11999989  55.06999969
C    22.70999908  11.36999989  55.44000244
C    23.02999878  11.95000076  56.70000076
C    22.01000023  12.27000046  57.56000137
C    20.65999985  11.94000053  57.22999954
C    16.51000023  11.23000050  56.35000229
C    15.85000038  11.77000046  57.49000168
C    14.47000027  11.96000004  57.49000168
C    24.47999954  12.20999908  57.02000046
H    24.85704994  11.70489407  57.90927124
H    19.84000015  12.81000042  59.02999878
H    18.82999992  10.77999973  54.55999756
H    21.18999863  10.67000008  54.10999680
H    23.54000092  10.93999958  54.88999939
H    22.13000107  12.71000004  58.54999924
H    13.85000038  12.20999908  58.34999847
H    25.03000069  11.97000027  56.10000229
H    24.63000107  13.28999996  57.21000290
S    13.36999989  10.73999977  53.87000275
C    10.67000008  10.59999943  54.52000046
C    11.94000053  10.95000076  54.91000366
C    12.30000019  11.50000000  56.18000031
C    11.26000023  11.59000015  57.09999847
C     9.92000008  11.35000038  56.73999786
C     8.89000034  11.54999924  57.70000076
C     7.59000015  11.23000050  57.38999939
C     7.25000000  10.76000023  56.09000397
C     8.23000050  10.59000015  55.13999939
C     9.61000061  10.82999992  55.43000031
C    13.73999977  11.64999962  56.33999634
C    14.45000076  11.23000050  55.19000244
C    15.80000019  10.90999985  55.19000244
C     5.88000011  10.26000023  55.68000031
H     5.38317156  10.90587711  54.95605087
H    10.39000034  10.08999920  53.61000061
H    11.54000092  12.02000046  58.06000137
H     9.23999977  11.73999977  58.70999908
H     6.93000031  11.46000004  58.22000122
H     8.01000023  10.19000053  54.15999985
H    16.26000023  10.59000015  54.25000000
H     5.23999977  10.18000031  56.56000137
H     6.06999969   9.26000023  55.27999878
S    17.28999901  12.38999939  52.54000092
C    19.96000099  12.27000046  51.83000183
C    18.65999985  11.94000053  51.52000046
C    18.32999992  11.51999950  50.19000244
C    19.34999847  11.35000038  49.27000046
C    20.66999817  11.77000046  49.52999878
C    21.80000114  11.59000015  48.68000031
C    23.06999969  11.98999977  49.02999878
C    23.34000015  12.61999989  50.27999878
C    22.29999924  12.69000053  51.18000031
C    20.97999954  12.28000069  50.84000015
C    16.87999916  11.54000092  50.00000000
C    16.21999931  11.96000004  51.18000031
C    14.84000015  12.10999966  51.25999832
C    24.77000046  12.71000004  50.75000000
H    25.16936302  11.96832466  51.44175720
H    20.03999901  12.86999893  52.72999573
H    19.11000061  11.06999969  48.25000000
H    21.73000145  11.09000015  47.71999741
H    23.95000076  11.69999981  48.46000290
H    22.50000000  12.94000053  52.22000122
H    14.32999992  12.56999969  52.09000015
H    25.45999908  12.89000034  49.91000366
H    24.86999893  13.67000008  51.26999664
S    13.55000019  10.90999985  47.71999741
C    10.82999992  11.10999966  48.36000061
C    12.13999939  11.43000031  48.66000366
C    12.61999989  11.89000034  49.92000198
C    11.64999962  12.10999966  50.89000320
C    10.29999924  11.76000023  50.66999817
C     9.26000023  11.92999935  51.63000107
C     7.90999985  11.84000015  51.33999634
C     7.49000025  11.32999992  50.07999802
C     8.47999954  11.13000011  49.13999939
C     9.86999989  11.33999920  49.36999893
C    14.06000042  11.84999943  50.12000275
C    14.70999908  11.23000050  49.02999878
C    16.09000015  11.10999966  48.93000031
C     6.01999998  11.16000080  49.79999924
H     5.58495045  11.68776608  48.95129776
H    10.46000004  10.54999924  47.50000000
H    12.00000000  12.55000019  51.81999969
H     9.48999977  12.34000015  52.61000061
H     7.17000008  12.15000057  52.06999969
H     8.19000053  10.85000038  48.13000107
H    16.54999924  10.72000027  48.02000046
H     5.40999985  11.56000042  50.61000061
H     5.78999996  10.07999992  49.81999969
