96

S    17.00000000  12.28000069  58.64999771
C    19.73999977  12.30000019  58.00000000
C    18.44000053  11.98999977  57.64999771
C    18.12999916  11.52999973  56.32999802
C    19.14999962  11.36999989  55.40999985
C    20.48000145  11.71000004  55.75000000
C    21.60000038  11.52999973  54.88999939
C    22.86000061  11.95000076  55.24000168
C    23.12000084  12.61999989  56.45999908
C    22.04999924  12.86999893  57.29000092
C    20.78000069  12.25999928  57.04999924
C    16.69999886  11.31000042  56.18999863
C    15.95000076  11.72999954  57.31999969
C    14.55999947  11.78999996  57.30999756
C    24.53000069  13.02000046  56.79999924
H    24.89319420  12.27224731  57.50502014
H    19.92000008  12.79999924  58.95000076
H    18.95000076  11.03999996  54.40000153
H    21.38999939  11.13000011  53.89999771
H    23.72999954  11.80999947  54.61000061
H    22.23999977  13.34000015  58.25000000
H    14.04999924  12.11999989  58.20999908
H    25.26000023  13.00000000  55.97999954
H    24.59000015  14.04000092  57.22000122
S    13.55999947  10.81999969  53.64999771
C    10.80999947  10.52000046  54.29000092
C    12.09000015  10.92000008  54.62999725
C    12.43000031  11.26999950  55.97999954
C    11.44000053  11.30000019  56.93999863
C    10.11000061  10.95999908  56.59000015
C     9.06000042  11.16000080  57.52999878
C     7.76000023  10.85000038  57.21000290
C     7.44999981  10.34000015  55.91999817
C     8.40999985  10.26999950  54.93999863
C     9.77000046  10.57999992  55.25000000
C    13.86999989  11.39999962  56.16000366
C    14.65000057  11.05999947  55.01999664
C    16.03999901  11.02000046  54.99000168
C     6.00000000  10.01999950  55.66999817
H     5.54717493  10.54357910  54.82802582
H    10.55999947  10.36999893  53.25000000
H    11.65999985  11.80999947  57.87000275
H     9.25000000  11.56000042  58.53000259
H     6.96000004  11.03999996  57.91999817
H     8.14000034  10.07999992  53.89999771
H    16.67000008  10.80000019  54.13999939
H     5.46000004  10.21999931  56.60999680
H     5.84999990   8.97000027  55.40000153
S    17.30999947  12.82999992  52.61000061
C    20.05000114  12.55000019  52.04999924
C    18.73999977  12.32999992  51.68000031
C    18.42000008  11.85999966  50.37000275
C    19.42000008  11.54999924  49.47000122
C    20.76999855  11.79999924  49.79000092
C    21.84999847  11.79999924  48.86000061
C    23.11000061  12.20000076  49.22000122
C    23.38000107  12.79999924  50.47999954
C    22.34999847  12.86000061  51.39999771
C    21.07999992  12.28999996  51.11000061
C    16.97999954  11.76000023  50.15999603
C    16.28999901  12.34000015  51.25000000
C    14.91000080  12.46000099  51.22000122
C    24.72999954  13.35000038  50.86000061
H    25.24891281  12.79554367  51.64192581
H    20.27000046  13.09999943  52.95000076
H    19.05999947  11.33999920  48.46000290
H    21.61999893  11.44999981  47.84999847
H    23.95000076  12.00000000  48.55999756
H    22.43000031  13.30000019  52.38999939
H    14.34000015  12.92000008  52.02999878
H    25.36999893  13.30000019  49.98000336
H    24.56999969  14.40999985  51.11999893
S    13.85000038  11.00999928  47.70999908
C    11.13999939  10.98000050  48.30999756
C    12.42000008  11.26000023  48.74000168
C    12.71000004  11.72999954  50.06000137
C    11.68000031  11.97999954  50.93999863
C    10.36999893  11.59000015  50.58000183
C     9.26000023  11.72000027  51.45999908
C     7.99000025  11.28000069  51.16000366
C     7.75000000  10.78999996  49.85000229
C     8.75000000  10.78999996  48.89999771
C    10.08999920  11.13000011  49.23999786
C    14.15999985  11.80999947  50.22999573
C    14.86999989  11.26000023  49.13999939
C    16.26000023  11.14999962  49.12000275
C     6.30999994  10.39000034  49.56999969
H     5.74657440  11.06040478  48.92099380
H    10.98000050  10.65000057  47.28000259
H    11.84000015  12.39999962  51.93000031
H     9.55999947  12.03999996  52.45999908
H     7.20000029  11.31000042  51.90000153
H     8.40999985  10.65000057  47.88000107
H    16.73999977  10.88000107  48.18999863
H     5.75000000  10.21999931  50.50000000
H     6.32000017   9.44000053  49.02999878
