96

S    16.45000076  12.09000015  58.92000198
C    19.22999954  12.34000015  58.30999756
C    17.94000053  12.03999996  57.95999908
C    17.56000137  11.64999962  56.63000107
C    18.53000069  11.23999977  55.72999954
C    19.88999939  11.31999969  56.11000061
C    20.90999985  11.17000008  55.13000107
C    22.20000076  11.56000042  55.38999939
C    22.52000046  12.20999908  56.60999680
C    21.55999947  12.36999989  57.57999802
C    20.20999908  12.02999973  57.32999802
C    16.14999962  11.51000023  56.31999969
C    15.43000031  11.90999985  57.48000336
C    14.04999924  11.94000053  57.64999771
C    23.92000008  12.76000023  56.84000015
H    24.52302361  12.11441040  57.47849655
H    19.47000122  12.88000011  59.22999954
H    18.38999939  10.72999954  54.78000259
H    20.52999878  10.98999977  54.13000107
H    23.02999878  11.57999992  54.68999863
H    21.75000000  12.92000008  58.50000000
H    13.56999969  12.03999996  58.61999893
H    24.40000153  12.84999943  55.86000061
H    23.90000153  13.75000000  57.29999924
S    12.84999943  10.88999939  54.01000214
C    10.19000053  10.77000046  54.79999924
C    11.49000072  11.11999989  55.11000061
C    11.92000008  11.46000004  56.43000031
C    11.00999928  11.72000027  57.43999863
C     9.64999962  11.44999981  57.15000153
C     8.57999992  11.79999924  58.02000046
C     7.27999973  11.42000008  57.78999710
C     7.00999975  10.70000076  56.59000015
C     7.95000029  10.47000027  55.61000061
C     9.27999973  10.90000057  55.86999893
C    13.36999989  11.56000042  56.47999573
C    14.04000092  11.16000080  55.30000305
C    15.43000031  11.05000019  55.21999741
C     5.56999969  10.32999992  56.32999802
H     5.17152119  10.87790871  55.47611618
H     9.81000042  10.57999992  53.80000305
H    11.42000008  12.00000000  58.40000153
H     8.82999992  12.30000019  58.95000076
H     6.51000023  11.51999950  58.54999924
H     7.65999985  10.06000042  54.65000153
H    15.93000031  10.57000065  54.38999939
H     5.13000011  10.42000008  57.32999802
H     5.40000010   9.30000019  56.00000000
S    17.17000008  12.74000072  53.04000092
C    19.84000015  12.89999962  52.22999954
C    18.54999924  12.53999901  51.93999863
C    18.18000031  11.94000053  50.68999863
C    19.17000008  11.78999996  49.73999786
C    20.53999901  11.97999954  50.04000092
C    21.54999924  11.72000027  49.06999969
C    22.86999893  12.00000000  49.34999847
C    23.22999954  12.44999981  50.65000153
C    22.26000023  12.68000031  51.59000015
C    20.86999893  12.48999977  51.33999634
C    16.72999954  11.84999943  50.56999969
C    16.04999924  12.32999992  51.72000122
C    14.68000031  12.51000023  51.68000031
C    24.65999985  12.82999992  51.00000000
H    25.08017349  12.18193531  51.76913452
H    20.15000153  13.25000000  53.20999908
H    18.84000015  11.46000004  48.75000000
H    21.30000114  11.31999969  48.09000015
H    23.68999863  11.89000034  48.63999939
H    22.56999969  13.09999943  52.55000305
H    14.15999985  12.89999962  52.55000305
H    25.22999954  12.84999943  50.06000137
H    24.56999969  13.88000011  51.31000137
S    13.63000011  11.31000042  48.06000137
C    10.95000076  11.36000061  48.55999756
C    12.20000076  11.61999893  49.06000137
C    12.48999977  12.25999928  50.31000137
C    11.42000008  12.48000050  51.16000366
C    10.11000061  12.20000076  50.70999908
C     9.07999992  12.13999939  51.69000244
C     7.88000011  11.52999973  51.43000031
C     7.55999994  11.18999958  50.08999634
C     8.53999996  11.17000008  49.12000275
C     9.85000038  11.63000011  49.40999985
C    13.93000031  12.28000069  50.51000214
C    14.67000008  11.80999947  49.40000153
C    16.03999901  11.57999992  49.38000107
C     6.15999985  10.72999954  49.78000259
H     5.71141624  11.27114868  48.94691849
H    10.80000019  10.77999973  47.64999771
H    11.61999893  12.61000061  52.22000122
H     9.19999981  12.61999989  52.65999603
H     7.11999989  11.38000011  52.18999863
H     8.34000015  10.78999996  48.11999893
H    16.52000046  11.35000038  48.43999863
H     5.55999994  10.84000015  50.68999863
H     6.23000050   9.65999985  49.55999756
