96

S    16.59000015  11.80999947  58.85000229
C    19.27000046  11.90000057  58.13000107
C    17.98999977  11.47999954  57.81000137
C    17.57999992  11.05000019  56.51000214
C    18.59000015  10.80000019  55.59999847
C    19.93000031  11.19999981  55.83000183
C    20.96999931  10.95999908  54.89999771
C    22.27999878  11.21000099  55.22999573
C    22.57999802  11.84000015  56.46999741
C    21.61000061  12.06999969  57.41000366
C    20.26000023  11.71000004  57.14000320
C    16.13999939  11.11999989  56.36000061
C    15.44999981  11.57999992  57.50999832
C    14.06999969  11.73999977  57.50999832
C    23.97999954  12.38999939  56.68000031
H    24.50049973  11.78393841  57.42153168
H    19.61000061  12.18999958  59.12000275
H    18.38999939  10.46000004  54.59000015
H    20.76999855  10.47999954  53.94000244
H    23.09000015  11.14999962  54.50000000
H    21.81999969  12.71000004  58.26000214
H    13.55999947  12.02000046  58.43000031
H    24.56000137  12.48000050  55.75000000
H    23.88999939  13.42000008  57.02999878
S    12.88000011  10.26999950  53.99000168
C    10.26999950   9.86999989  54.89999771
C    11.47999954  10.48999977  55.06000137
C    11.87999916  11.05999947  56.31000137
C    10.98000050  11.31999969  57.31999969
C     9.65999985  10.85999966  57.08000183
C     8.52999973  11.14999962  57.88999939
C     7.25000000  10.85000038  57.48000336
C     6.91999960  10.11999989  56.30000305
C     7.99000025   9.65999985  55.56999969
C     9.28999996  10.14000034  55.89000320
C    13.31999969  11.21999931  56.45000076
C    13.99000072  10.82999992  55.26000214
C    15.38000011  10.90999985  55.20000076
C     5.50000000   9.78999996  55.91999817
H     5.11624336  10.52198029  55.20933914
H     9.98000050   9.23999977  54.06000137
H    11.25000000  11.89000034  58.20999908
H     8.64000034  11.72999954  58.80000305
H     6.42000008  10.98000050  58.15999985
H     7.86999989   9.06999969  54.66999817
H    15.93999958  10.59999943  54.33000183
H     4.88999987   9.85999966  56.83000183
H     5.46000004   8.75000000  55.56000137
S    13.52000046   8.60999966  51.04000092
C    10.95000076   7.71000004  51.60999680
C    12.30000019   7.60999966  51.84000015
C    12.76000023   7.13999987  53.11999893
C    11.82999992   6.53999996  53.95000076
C    10.44999981   6.48000002  53.66000366
C     9.46000004   5.95000029  54.54000092
C     8.14000034   6.17999983  54.26000214
C     7.64999962   6.76999998  53.06999969
C     8.59000015   7.27999973  52.19999695
C     9.98000050   7.13999987  52.47000122
C    14.18000031   7.42000008  53.29000092
C    14.75999928   8.14000034  52.21000290
C    16.13000107   8.38000011  52.12999725
C     6.15999985   7.00000000  52.87000275
H     5.87529993   6.62277317  51.88778687
H    10.54999924   8.34999943  50.83000183
H    12.20999908   6.11999989  54.87999725
H     9.80000019   5.56999969  55.50000000
H     7.42999983   5.92999983  55.05000305
H     8.34000015   7.85000038  51.31000137
H    16.54000092   8.80000019  51.20999908
H     5.55999994   6.60000038  53.68999863
H     5.96000004   8.07999992  52.83000183
S    17.57999992   6.76999998  55.48999786
C    20.19000053   7.07000017  54.61999893
C    18.86000061   7.31999969  54.38999939
C    18.37000084   8.01000023  53.23999786
C    19.27999878   8.53999996  52.34000397
C    20.65000153   8.36000061  52.63000107
C    21.63999939   8.98999977  51.83000183
C    22.98000145   9.02999973  52.15000153
C    23.47999954   8.32999992  53.27999878
C    22.56000137   7.68000031  54.08000183
C    21.17000198   7.64999962  53.77999878
C    16.92000008   7.97999954  53.20999908
C    16.35000038   7.30000019  54.31999969
C    14.98999977   7.03000021  54.36000061
C    24.92000198   8.61999989  53.61000061
H    25.28273773   8.03677464  54.45638657
H    20.45000076   6.94000006  55.66999817
H    19.03000069   9.13000011  51.45000076
H    21.28000069   9.48999977  50.93999863
H    23.61000061   9.68999958  51.55000305
H    22.93000031   7.31999969  55.02999878
H    14.68000031   6.44000006  55.20999908
H    25.02000046   9.71000004  53.67000198
H    25.61000061   8.36000061  52.80000305
