96

S    16.52000046  11.51000023  58.87000275
C    19.22000122  11.69999981  58.23999786
C    17.94999886  11.38000011  57.81999969
C    17.56000137  10.88999939  56.52999878
C    18.57999992  10.69000053  55.61999893
C    19.90999985  10.95000076  56.02000427
C    20.96999931  10.84000015  55.06999969
C    22.22999954  11.36000061  55.28999710
C    22.56000137  11.90999985  56.56000137
C    21.57999992  11.98999977  57.51999664
C    20.26000023  11.50000000  57.29999924
C    16.11999893  10.80999947  56.36000061
C    15.39999962  11.11999989  57.55000305
C    14.01999950  11.21999931  57.61000061
C    23.92000008  12.53000069  56.77999878
H    24.49187851  11.96526909  57.51629639
H    19.40000153  12.10999966  59.22999954
H    18.38000107  10.34000015  54.61000061
H    20.61000061  10.50000000  54.10999680
H    22.79999924  11.61999893  54.40000153
H    21.87000084  12.55000019  58.40999985
H    13.45999908  11.56999969  58.47999954
H    24.46000099  12.50000000  55.83000183
H    23.80000114  13.56999969  57.09999847
S    12.84999943  10.42000008  53.92000198
C    10.13000011  10.29999924  54.58000183
C    11.42000008  10.59000015  54.95999908
C    11.77000046  10.98999977  56.29000092
C    10.76000023  11.03999996  57.23999786
C     9.42000008  10.95999908  56.79999924
C     8.38999939  11.32999992  57.70999908
C     7.09000015  11.13999939  57.30999756
C     6.71000004  10.51000023  56.09000397
C     7.69999981  10.31000042  55.14999771
C     9.06999969  10.48999977  55.48999786
C    13.21000004  10.98999977  56.50000000
C    13.92000008  10.59999943  55.33000183
C    15.29999924  10.47999954  55.27000046
C     5.27999973  10.11000061  55.79999924
H     4.98021364  10.53826618  54.84354019
H     9.81000042  10.03000069  53.56999969
H    11.00000000  11.19999981  58.29000092
H     8.56999969  11.56000042  58.75999832
H     6.32000017  11.50000000  57.98999786
H     7.44000006   9.89000034  54.18000031
H    15.73999977  10.14999962  54.33000183
H     4.51000023  10.42000008  56.52000046
H     5.12000036   9.03999996  55.65000153
S    13.60000038   8.57999992  50.86000061
C    10.93999958   7.94000053  51.45000076
C    12.27000046   7.82999992  51.77000046
C    12.72999954   7.26999998  53.00000000
C    11.72999954   6.85999966  53.87000275
C    10.34999943   6.93000031  53.59000397
C     9.31999969   6.48999977  54.47999954
C     8.00000000   6.69000053  54.15000153
C     7.62000036   7.37999964  52.97000122
C     8.56000042   7.63999987  52.00000000
C     9.94000053   7.42000008  52.29999924
C    14.17000008   7.40000010  53.15999985
C    14.78000069   8.11999989  52.09999847
C    16.13999939   8.36999989  52.02999878
C     6.17999983   7.78999996  52.77000046
H     5.67345715   7.14790344  52.04942703
H    10.62999916   8.50000000  50.56999969
H    12.15000057   6.43000031  54.78000259
H     9.53999996   6.02999973  55.44000244
H     7.32999992   6.28000021  54.89999771
H     8.36999989   8.15999985  51.06999969
H    16.63999939   9.01000023  51.30000305
H     5.65000010   7.85000038  53.73000336
H     6.17000008   8.82999992  52.39999771
S    17.54999924   6.58999968  55.38999939
C    20.17999840   7.21000004  54.59000015
C    18.81999969   7.36999989  54.43000031
C    18.40999985   7.96999979  53.18999863
C    19.29999924   8.40999985  52.22999954
C    20.69000053   8.28999996  52.45999908
C    21.67000008   8.75000000  51.52999878
C    23.02000046   8.64000034  51.75000000
C    23.44000053   8.09000015  53.00000000
C    22.56000137   7.59000015  53.92000198
C    21.15999985   7.69000006  53.68000031
C    16.97000122   7.81000042  53.01000214
C    16.43000031   7.11999989  54.12000275
C    15.06000042   6.90000010  54.12000275
C    24.92000198   7.96000004  53.29000092
H    25.28246117   8.24428272  54.27788162
H    20.50000000   6.69000053  55.47999954
H    18.96000099   8.89999962  51.32999802
H    21.32999802   9.44999981  50.76000214
H    23.78000069   9.13999939  51.14999771
H    22.93999863   7.02000046  54.75999832
H    14.65999985   6.32999992  54.95999908
H    25.46999931   8.51000023  52.50999832
H    25.20000076   6.90999985  53.20000076
