96

S    16.54000092  11.90000057  58.79000092
C    19.20999908  12.43000031  58.09000015
C    17.94999886  12.01000023  57.71999741
C    17.65999985  11.46000004  56.44000244
C    18.68999863  11.23000050  55.54000092
C    20.00000000  11.59999943  55.93999863
C    21.12999916  11.23000050  55.15999603
C    22.43000031  11.57999992  55.41999817
C    22.67999840  12.23999977  56.65000153
C    21.64999962  12.48999977  57.52999878
C    20.29000092  12.23000050  57.19999695
C    16.21999931  11.36000061  56.23000336
C    15.47000027  11.54999924  57.42000198
C    14.07999992  11.61000061  57.50000000
C    24.06999969  12.65999985  57.06999969
H    24.65967178  11.91402912  57.60283661
H    19.43000031  12.72999954  59.10999680
H    18.45000076  10.67000008  54.65000153
H    20.93000031  10.70000076  54.22999954
H    23.22000122  11.50000000  54.68000031
H    21.80999947  13.09999943  58.41999817
H    13.42000008  11.89000034  58.30999756
H    24.63000107  13.00000000  56.19999695
H    23.97000122  13.53999996  57.71999741
S    13.07999992  10.57000065  53.81999969
C    10.42000008  10.47999954  54.41999817
C    11.65999985  10.92000008  54.81999969
C    11.96000004  11.25000000  56.18000031
C    10.92000008  11.46000004  57.05999756
C     9.59000015  11.19999981  56.66999817
C     8.52000046  11.07999992  57.60000229
C     7.26000023  10.62999916  57.25999832
C     7.04999971  10.15999985  55.93999863
C     8.06999969  10.21000004  55.01999664
C     9.35999966  10.70000076  55.34000015
C    13.40999985  11.31999969  56.31000137
C    14.17000008  10.95999908  55.15999603
C    15.55999947  10.97000027  55.06999969
C     5.63000011   9.85000038  55.52000046
H     5.30167007  10.25684357  54.56356049
H    10.32999992   9.88000011  53.52000427
H    11.07999992  11.69999981  58.11000061
H     8.61999989  11.51999950  58.59000397
H     6.38000011  10.70000076  57.88999939
H     7.81000042   9.94999981  53.99000168
H    16.15999985  10.78999996  54.18000031
H     5.03000021  10.15999985  56.38999939
H     5.52999973   8.76000023  55.40000153
S    13.27000046   8.36000061  50.97000122
C    10.59999943   7.90000010  51.58000183
C    11.90999985   7.83999968  51.97999954
C    12.35000038   7.36999989  53.26000214
C    11.39000034   6.90000010  54.13000107
C    10.01999950   7.04999971  53.81999969
C     9.02999973   6.57999992  54.72999954
C     7.69000006   6.63999987  54.43000031
C     7.28999996   7.09999990  53.15000153
C     8.22000027   7.62000036  52.28000259
C     9.61000061   7.64999962  52.56999969
C    13.81000042   7.40000010  53.36000061
C    14.46000004   7.90999985  52.21000290
C    15.81999969   8.19999981  52.18000031
C     5.88000011   6.72999954  52.71999741
H     5.56707716   7.27761555  51.83101273
H    10.26000023   8.32999992  50.63999939
H    11.68000031   6.48000002  55.08999634
H     9.43000031   6.17999983  55.65999985
H     6.98999977   6.06999969  55.02999878
H     8.11999989   8.01999950  51.26999664
H    16.27000046   8.47999954  51.22000122
H     5.80999947   5.65999985  52.52999878
H     5.15999985   6.89000034  53.53000259
S    17.11000061   7.23999977  55.83000183
C    19.82999992   7.55000019  55.04000092
C    18.47999954   7.63999987  54.78000259
C    18.02000046   8.05000019  53.48999786
C    18.96999931   8.55000019  52.61000061
C    20.35000038   8.53999996  52.90999985
C    21.32999802   8.93999958  51.95999908
C    22.69000053   8.85000038  52.15999985
C    23.19000053   8.36999989  53.40000153
C    22.25000000   7.97999954  54.33000183
C    20.84000015   8.01999950  54.15999985
C    16.56999969   7.96999979  53.34000015
C    15.95999908   7.42000008  54.48999786
C    14.60000038   7.13000011  54.47999954
C    24.63999939   7.97999954  53.59000397
H    24.99684906   8.22979546  54.58918381
H    20.17999840   7.04999971  55.93000031
H    18.65999985   8.90999985  51.63999939
H    21.00000000   9.35000038  51.00999832
H    23.34000015   9.15000057  51.33999634
H    22.56999969   7.46999979  55.24000168
H    14.18000031   6.72999954  55.38999939
H    25.28000069   8.52000046  52.88000107
H    24.79999924   6.90000010  53.55999756
