96

S    17.12000084  12.13999939  58.88000107
C    19.70000076  12.27000046  58.13999939
C    18.46999931  11.73999977  57.81000137
C    18.09999847  11.38000011  56.46999741
C    19.09000015  11.36000061  55.50000000
C    20.36999893  11.90999985  55.76000214
C    21.47999954  11.75000000  54.87999725
C    22.75000000  12.13000107  55.24000168
C    23.02000046  12.72999954  56.50000000
C    21.97000122  12.81999969  57.37999725
C    20.65000153  12.36999989  57.09000015
C    16.64999962  11.36000061  56.38000107
C    15.98999977  11.79999924  57.55000305
C    14.60000038  11.89000034  57.69000244
C    24.43000031  13.09999943  56.86999893
H    24.89275360  12.38806820  57.55345535
H    19.90999985  12.74000072  59.09999847
H    18.95000076  10.82999992  54.55999756
H    21.35000038  11.36999989  53.88000107
H    23.55999947  12.10999966  54.51000214
H    22.20999908  12.96000004  58.43000031
H    14.14000034  12.09000015  58.63999939
H    25.12000084  13.25000000  56.03000259
H    24.44000053  14.06999969  57.39999771
S    13.27000046  10.78999996  54.13999939
C    10.57999992  10.75000000  54.87999725
C    11.87999916  11.03999996  55.21999741
C    12.35999966  11.44999981  56.51000214
C    11.35000038  11.57999992  57.44999695
C     9.98000050  11.33999920  57.16999817
C     8.93999958  11.36999989  58.15000153
C     7.63000011  11.03000069  57.94000244
C     7.30999994  10.59999943  56.63000107
C     8.25000000  10.39999962  55.63999939
C     9.57999992  10.85000038  55.87999725
C    13.80000019  11.61000061  56.56999969
C    14.46000004  11.21000099  55.38000107
C    15.84000015  11.06999969  55.27000046
C     5.88999987  10.19999981  56.29000092
H     5.47419596  10.68749523  55.40821075
H    10.43000031  10.14999962  53.97999573
H    11.64999962  11.78999996  58.47000122
H     9.19000053  11.75000000  59.13999939
H     6.83000040  11.03999996  58.68000031
H     8.09000015   9.77999973  54.77000427
H    16.31999969  10.65000057  54.38999939
H     5.28999996  10.44000053  57.18000031
H     5.84999990   9.11000061  56.18999863
S    16.97999954  12.48999977  52.70999908
C    19.68000031  12.71000004  51.95999908
C    18.39999962  12.28999996  51.65999985
C    17.97000122  11.90000057  50.34999847
C    18.92000008  11.82000065  49.34999847
C    20.25000000  12.18000031  49.66999817
C    21.21999931  12.02999973  48.63999939
C    22.50999832  12.43000031  48.92000198
C    22.98000145  12.89999962  50.18000031
C    22.03000069  13.05999947  51.16000366
C    20.68000031  12.68000031  50.94999695
C    16.53000069  11.89000034  50.14999771
C    15.86999989  12.28000069  51.33999634
C    14.48999977  12.43000031  51.47999573
C    24.43000031  13.21000004  50.45000076
H    24.85676003  12.54852486  51.20394135
H    19.95000076  13.12999916  52.91999817
H    18.61999893  11.56999969  48.34000015
H    20.94000053  11.64000034  47.67000198
H    23.23999786  12.43000031  48.11999893
H    22.29999924  13.43000031  52.15000153
H    14.01999950  12.51999950  52.44999695
H    24.96999931  13.28999996  49.50000000
H    24.54999924  14.25000000  50.79999924
S    13.34000015  11.51000023  47.74000168
C    10.65999985  11.14999962  48.43999863
C    11.90999985  11.59999943  48.79000092
C    12.35000038  12.05000019  50.07999802
C    11.39999962  12.03999996  51.07999802
C    10.06999969  11.67000008  50.77000046
C     9.13999939  11.59000015  51.84000015
C     7.82000017  11.35000038  51.55000305
C     7.44999981  10.90000057  50.26000214
C     8.34000015  10.80999947  49.22000122
C     9.67000008  11.28000069  49.43999863
C    13.78000069  12.20000076  50.30000305
C    14.44000053  11.89000034  49.09000015
C    15.80999947  11.68000031  48.95999908
C     6.05000019  10.39999962  49.98000336
H     5.71552086  10.93374348  49.09043121
H    10.43000031  10.52000046  47.57999802
H    11.69000053  12.03999996  52.12999725
H     9.38000011  11.96000004  52.84000015
H     7.17999983  11.44999981  52.42000198
H     8.06999969  10.46000004  48.22000122
H    16.25000000  11.25000000  48.06999969
H     5.40999985  10.70000076  50.81999969
H     6.05000019   9.30999947  49.92000198
