96

S    16.56999969  11.97000027  59.02000046
C    19.22999954  12.30000019  58.40999985
C    17.97000122  12.00000000  57.93000031
C    17.63000107  11.51000023  56.63000107
C    18.67000008  11.33999920  55.73999786
C    19.97999954  11.69000053  56.14999771
C    21.07999992  11.56000042  55.25000000
C    22.37999916  11.77000046  55.63999939
C    22.77000046  12.06999969  56.97000122
C    21.67000008  12.30000019  57.77000046
C    20.29000092  12.10999966  57.49000168
C    16.21000099  11.19999981  56.50000000
C    15.50000000  11.46000004  57.70000076
C    14.11000061  11.54999924  57.68000031
C    24.13999939  12.64999962  57.23999786
H    24.66507339  12.01849270  57.95665359
H    19.34999847  12.53000069  59.45999908
H    18.59000015  10.90999985  54.73999786
H    20.88000107  11.23999977  54.22999954
H    23.11000061  11.78999996  54.82999802
H    21.78999901  12.69000053  58.76999664
H    13.66000080  11.92000008  58.60000229
H    24.63000107  12.64000034  56.25999832
H    24.17000008  13.71000099  57.50999832
S    13.02999973  10.59999943  54.00000000
C    10.31000042  10.52999973  54.54000092
C    11.56999969  10.85000038  54.98000336
C    11.90000057  11.18000031  56.33999634
C    10.84000015  11.38000011  57.19999695
C     9.52000046  11.11999989  56.77000046
C     8.51000023  11.10999966  57.77000046
C     7.23000002  10.72000027  57.42000198
C     6.90999985  10.18000031  56.14999771
C     7.92999983  10.05000019  55.24000168
C     9.22999954  10.59000015  55.45999908
C    13.34000015  11.26000023  56.55000305
C    14.07999992  10.93000031  55.38999939
C    15.47000027  10.93000031  55.34000015
C     5.49000025   9.89000034  55.70999908
H     5.05724144  10.64200783  55.05022049
H    10.14000034  10.10000038  53.55999756
H    11.02000046  11.51000023  58.26000214
H     8.56999969  11.36999989  58.81999969
H     6.39999962  10.84000015  58.09999847
H     7.72000027   9.56999969  54.29000092
H    16.03000069  10.98999977  54.40999985
H     4.86999989   9.72000027  56.59999847
H     5.59999990   8.92000008  55.20999908
S    17.30999947  12.65999985  52.58999634
C    19.96999931  12.75000000  51.93000031
C    18.71000099  12.38999939  51.53999710
C    18.38999939  11.76000023  50.28999710
C    19.43000031  11.56000042  49.40000153
C    20.72999954  12.02000046  49.69999695
C    21.87000084  11.92999935  48.85000229
C    23.15000153  12.22000027  49.27000046
C    23.44000053  12.65999985  50.59000015
C    22.36000061  12.79000092  51.44000244
C    21.02999878  12.51999950  51.02000427
C    16.95999908  11.50000000  50.24000168
C    16.23999977  11.95000076  51.37000275
C    14.85000038  11.84999943  51.46999741
C    24.82999992  13.02000046  51.06999969
H    25.20754242  12.49286747  51.94618225
H    20.17999840  13.22999954  52.88999939
H    19.23999977  11.31000042  48.36000061
H    21.68999863  11.46999931  47.88000107
H    23.97999954  12.02000046  48.61000061
H    22.50999832  13.01000023  52.50000000
H    14.40999985  12.18000031  52.41000366
H    25.55000114  12.79000092  50.27999878
H    24.89000130  14.06000042  51.39999771
S    13.69999981  10.90000057  47.87000275
C    10.93999958  10.71000004  48.54000092
C    12.23000050  11.05999947  48.86000061
C    12.67000008  11.61999893  50.10000229
C    11.64000034  11.87000084  50.98999786
C    10.26999950  11.61000061  50.77000046
C     9.25000000  11.69999981  51.76000214
C     7.95000029  11.36999989  51.49000168
C     7.67000008  10.71000004  50.26000214
C     8.59000015  10.62999916  49.23999786
C     9.94999981  10.95999908  49.52999878
C    14.09000015  11.44999981  50.37000275
C    14.82999992  11.05000019  49.22000122
C    16.21999931  11.10000038  49.12000275
C     6.25000000  10.24000072  50.00999832
H     5.76591587  10.93764973  49.32658768
H    10.67000008  10.40999985  47.52999878
H    11.84000015  12.06999969  52.04000092
H     9.50000000  11.97999954  52.77999878
H     7.23000002  11.52999973  52.29000092
H     8.36999989  10.21000004  48.27000046
H    16.64999962  10.72000027  48.20000076
H     5.68000031  10.14999962  50.93999863
H     6.34999990   9.22000027  49.64000320
