96

S    16.06999969  11.51999950  58.63999939
C    18.76000023  11.56999969  58.11000061
C    17.51000023  11.21000099  57.64999771
C    17.13999939  10.85000038  56.31999969
C    18.20999908  10.52999973  55.48999786
C    19.52000046  10.90999985  55.87999725
C    20.61000061  10.64000034  55.00999832
C    21.90999985  10.90000057  55.37000275
C    22.18000031  11.57999992  56.59000015
C    21.17000198  11.78999996  57.49000168
C    19.81999969  11.47999954  57.16999817
C    15.71000004  10.80000019  56.06999969
C    15.03999901  11.28999901  57.22000122
C    13.67000008  11.50000000  57.18000031
C    23.57000160  12.06999969  56.93000031
H    24.11835098  11.33649063  57.52108002
H    18.93000031  11.84999943  59.13999939
H    18.04999924  10.14999962  54.48999786
H    20.39999962  10.29999924  54.00000000
H    22.72000122  10.57000065  54.72999954
H    21.35999870  12.17000008  58.48999786
H    13.14000034  11.68000031  58.11000061
H    24.20000076  12.30999947  56.05999756
H    23.45999908  13.02999973  57.45999908
S    12.41000080   9.77999973  53.94000244
C     9.72999954   9.59999943  54.75999832
C    10.98999977  10.11999989  54.94999695
C    11.39000034  10.82999992  56.11999893
C    10.44999981  11.10000038  57.09999847
C     9.11000061  10.65999985  56.91999817
C     8.11999989  10.90999985  57.90999985
C     6.80000019  10.59000015  57.70999908
C     6.40999985  10.22999954  56.38999939
C     7.35000038   9.86999989  55.45000076
C     8.75000000   9.96000004  55.72000122
C    12.82999992  10.98000050  56.18000031
C    13.57999992  10.40999985  55.12000275
C    14.96000099  10.38000011  54.95999908
C     4.96000004   9.98999977  56.04000092
H     4.65322113  10.61069202  55.19814301
H     9.35000038   9.15000057  53.83999634
H    10.77000046  11.51999950  58.04999924
H     8.46000004  11.33999920  58.85000229
H     6.11000013  10.57999992  58.54999924
H     7.09000015   9.35999966  54.52999878
H    15.47999954  10.01999950  54.08000183
H     4.35999966  10.18000031  56.93999863
H     4.92000008   8.90999985  55.81999969
S    16.95999908  11.77000046  52.76000214
C    19.56999969  11.97999954  52.04000092
C    18.30999947  11.61999893  51.62000275
C    17.90999985  11.39000034  50.27000046
C    18.95000076  11.36999989  49.36000061
C    20.29000092  11.54000092  49.77000427
C    21.35000038  11.36000061  48.83999634
C    22.65999985  11.57999992  49.20999908
C    22.95000076  12.27000046  50.40999985
C    21.97000122  12.35999966  51.37000275
C    20.62999916  11.97000027  51.10000229
C    16.45000076  11.36999989  50.18000031
C    15.80999947  11.54999924  51.43000031
C    14.42999935  11.61000061  51.63999939
C    24.37999916  12.69000053  50.68000031
H    24.91868210  12.03791046  51.36753082
H    19.70000076  12.35000038  53.04999924
H    18.70000076  11.32999992  48.29999924
H    21.05999947  11.17000008  47.81000137
H    23.48999977  11.28999901  48.56999969
H    22.25000000  12.69999981  52.36000061
H    14.01999950  11.69000053  52.63999939
H    24.87999916  12.79000092  49.71000290
H    24.37999916  13.64999962  51.22000122
S    13.19000053  11.13000011  47.88999939
C    10.50000000  10.84000015  48.62999725
C    11.78999996  11.13999939  48.99000168
C    12.20999908  11.50000000  50.31000137
C    11.21000099  11.64000034  51.24000168
C     9.85000038  11.40999985  50.90999985
C     8.86999989  11.44999981  51.93999863
C     7.62000036  10.88999939  51.75000000
C     7.20000029  10.59000015  50.43000031
C     8.11999989  10.57000065  49.40000153
C     9.47000027  10.97000027  49.59999847
C    13.66000080  11.51000023  50.47000122
C    14.32999992  11.25000000  49.25000000
C    15.70000076  11.21999931  49.01000214
C     5.84999990   9.98999977  50.10000229
H     5.52900743  10.63198471  49.27968597
H    10.25000000  10.46000004  47.63999939
H    11.42000008  11.84000015  52.29000092
H     9.15000057  11.72000027  52.95999908
H     6.97000027  10.67999935  52.58999634
H     7.90000010  10.14000034  48.43000031
H    16.10999870  11.05999947  48.02000046
H     5.22000027  10.17000008  50.97999954
H     5.86000013   8.93000031  49.82999802
