96

S    16.75000000  12.10999966  58.81999969
C    19.40999985  12.39999962  58.09999847
C    18.18000031  11.84999943  57.81000137
C    17.93000031  11.13999939  56.59000015
C    18.95000076  10.92000008  55.68999863
C    20.23999977  11.44000053  55.94999695
C    21.35000038  11.10999966  55.11000061
C    22.60000038  11.57999992  55.41999817
C    22.76000023  12.43000031  56.53999710
C    21.71999931  12.76999950  57.36000061
C    20.40999985  12.28000069  57.09999847
C    16.48999977  10.98999977  56.45000076
C    15.71000004  11.44999981  57.54000092
C    14.32999992  11.56999969  57.52999878
C    24.15999985  12.82999992  56.97000122
H    24.50254631  12.08067894  57.68363953
H    19.63000107  12.93000031  59.02999878
H    18.82999992  10.25000000  54.84000397
H    21.30000114  10.26000023  54.43000031
H    23.43000031  11.52999973  54.72000122
H    21.97999954  13.22999954  58.30999756
H    13.76999950  12.02000046  58.34999847
H    24.75000000  12.76999950  56.04000092
H    24.33000183  13.85000038  57.35000229
S    13.35999966  10.14000034  53.96999741
C    10.55999947  10.21999931  54.59999847
C    11.87999916  10.52999973  54.86999893
C    12.18000031  11.03999996  56.17000198
C    11.18000031  11.32999992  57.08000183
C     9.82999992  11.00999928  56.79000092
C     8.82999992  11.23999977  57.77999878
C     7.50999975  11.02000046  57.47000122
C     7.21000004  10.27999973  56.29000092
C     8.19000053   9.88000011  55.40999985
C     9.51000023  10.40999985  55.52999878
C    13.61999989  11.07999992  56.43000031
C    14.37999916  10.55999947  55.35999680
C    15.77000046  10.47000027  55.37000275
C     5.78999996   9.85000038  56.00000000
H     5.28998089  10.59288597  55.37854767
H    10.43000031   9.68000031  53.67000198
H    11.49000072  11.71000004  58.04000092
H     9.17000008  11.67000008  58.72000122
H     6.76000023  11.18000031  58.23999786
H     7.88000011   9.31999969  54.52999878
H    16.34000015  10.11000061  54.52000046
H     5.31000042   9.94000053  56.98999786
H     5.73999977   8.78999996  55.70999908
S    16.77999878  12.22000027  52.84999847
C    19.45999908  12.35999966  52.14000320
C    18.19000053  11.95000076  51.79999924
C    17.75000000  11.33999920  50.59000015
C    18.79999924  11.03000069  49.75000000
C    20.10000038  11.56000042  49.93000031
C    21.07999992  11.46999931  48.90999603
C    22.37999916  11.87000084  49.10999680
C    22.77000046  12.51000023  50.31999969
C    21.80999947  12.65999985  51.30000305
C    20.45999908  12.25000000  51.13999939
C    16.31000137  11.26999950  50.38000107
C    15.65999985  11.73999977  51.56000137
C    14.28999996  11.90999985  51.68000031
C    24.21999931  12.92000008  50.47000122
H    24.73846054  12.34471989  51.23704147
H    19.73999977  12.75000000  53.11999893
H    18.60000038  10.48999977  48.82999802
H    20.88000107  10.97000027  47.95999908
H    23.12999916  11.71000004  48.34999847
H    22.03000069  12.96000004  52.31999969
H    13.89999962  12.46999931  52.52999878
H    24.82000160  12.77999973  49.55999756
H    24.11000061  13.96000004  50.79000092
S    13.02000046  10.70000076  48.11999893
C    10.34999943  10.65999985  48.85000229
C    11.63000011  11.05999947  49.15999985
C    12.06999969  11.61000061  50.40999985
C    11.07999992  11.76000023  51.36000061
C     9.71000004  11.50000000  51.11000061
C     8.71000004  11.51999950  52.12999725
C     7.40999985  11.25000000  51.77999878
C     7.03999996  10.77000046  50.50000000
C     8.01000023  10.64000034  49.52999878
C     9.36999989  10.97000027  49.81999969
C    13.52000046  11.59999943  50.56000137
C    14.17000008  11.03999996  49.43000031
C    15.53999996  10.88000107  49.27999878
C     5.60999966  10.39000034  50.17000198
H     5.16881895  11.11581421  49.48688126
H    10.21000004  10.19000053  47.88000107
H    11.39999962  11.84000015  52.39999771
H     9.01000023  11.76000023  53.15000153
H     6.67000008  11.25000000  52.56999969
H     7.83999968  10.38000011  48.48999786
H    15.97000027  10.54999924  48.34000015
H     4.98000002  10.44000053  51.06999969
H     5.56999969   9.43000031  49.65000153
