96

S    16.56999969  11.51999950  58.94000244
C    19.32999992  11.68000031  58.22000122
C    18.02999878  11.31000042  57.95999908
C    17.67000008  10.85000038  56.65000153
C    18.60999870  10.57999992  55.66999817
C    19.95000076  10.95000076  55.90999985
C    20.95000076  10.88999939  54.89999771
C    22.26000023  11.16000080  55.25000000
C    22.59000015  11.79999924  56.46999741
C    21.60000038  12.01000023  57.41000366
C    20.29000092  11.49000072  57.19999695
C    16.21999931  10.78999996  56.46999741
C    15.46000004  11.25000000  57.57999802
C    14.09000015  11.44999981  57.60000229
C    24.00000000  12.18999958  56.83000183
H    24.51308250  11.57715034  57.57112503
H    19.63000107  12.10999966  59.16999817
H    18.22999954  10.48999977  54.65000153
H    20.66999817  10.54999924  53.90999603
H    23.01000214  10.90000057  54.50000000
H    21.83000183  12.69000053  58.22000122
H    13.52000046  11.76000023  58.47000122
H    24.64999962  12.11999989  55.93999863
H    24.04999924  13.22999954  57.18000031
S    12.98999977   9.90999985  54.13000107
C    10.22999954  10.07999992  54.72999954
C    11.54000092  10.21999931  55.10000229
C    11.90999985  10.82999992  56.35000229
C    10.90999985  11.00000000  57.29000092
C     9.55999947  10.77000046  56.93999863
C     8.50000000  10.69000053  57.88000107
C     7.18999958  10.34000015  57.63999939
C     6.80999994   9.96000004  56.31999969
C     7.81000042   9.96999931  55.38000107
C     9.15999985  10.32999992  55.63000107
C    13.35000038  10.97000027  56.51000214
C    14.09000015  10.39000034  55.45000076
C    15.47000027  10.38000011  55.35999680
C     5.46000004   9.42000008  55.90999985
H     5.04038954   9.97473907  55.07077789
H    10.00000000   9.68000031  53.74000168
H    11.19999981  11.26000023  58.29999924
H     8.67000008  10.82999992  58.95000076
H     6.38999987  10.31999969  58.36999893
H     7.60999966   9.61000061  54.36999893
H    15.85999966  10.15999985  54.36999893
H     4.85000038   9.61999989  56.79999924
H     5.52999973   8.34000015  55.73999786
S    13.31999969   8.14999962  51.00000000
C    10.64000034   7.60999966  51.62000275
C    11.97000027   7.50000000  51.93999863
C    12.43999958   6.89000034  53.15000153
C    11.51999950   6.26999950  53.96999741
C    10.14000034   6.39999962  53.66000366
C     9.13999939   5.98999977  54.58000183
C     7.81000042   6.26999950  54.34999847
C     7.35000038   6.69000053  53.08000183
C     8.27000046   7.09000015  52.14000320
C     9.65999985   7.03000021  52.47000122
C    13.88000011   7.07999992  53.30999756
C    14.52999973   7.71000004  52.21000290
C    15.85000038   8.13000011  52.22000122
C     5.88999987   7.04999971  52.84999847
H     5.39881945   6.55881929  52.01000977
H    10.34999943   8.23999977  50.77999878
H    11.87000084   5.91000032  54.93999863
H     9.48000050   5.63000011  55.54999924
H     7.05999947   6.12999964  55.12000275
H     7.97999954   7.59999990  51.23000336
H    16.31000137   8.64999962  51.38000107
H     5.32000017   7.03000021  53.77999878
H     6.01000023   8.11999989  52.63000107
S    17.22999954   6.80999994  55.70000076
C    19.85999870   7.16000032  55.06999969
C    18.56999969   7.21000004  54.61000061
C    18.09000015   7.82999992  53.40999985
C    19.09000015   8.26000023  52.56000137
C    20.45000076   8.06999969  52.91999817
C    21.40999985   8.67999935  52.05999756
C    22.72999954   8.46000004  52.36000061
C    23.19999886   7.79999971  53.52000427
C    22.27999878   7.42999983  54.47000122
C    20.88999939   7.57000017  54.19000244
C    16.63999939   7.76999998  53.31999969
C    16.03999901   7.09000015  54.40999985
C    14.70000076   6.70000029  54.36999893
C    24.67000008   7.44999981  53.63999939
H    25.06234932   7.59980583  54.64584351
H    20.10999870   6.83000040  56.07999802
H    18.89000130   8.64999962  51.56999969
H    21.11000061   9.31999969  51.23000336
H    23.45999908   8.82000065  51.63000107
H    22.60000038   6.98999977  55.40999985
H    14.32000065   5.98999977  55.10000229
H    25.20000076   8.03999996  52.88000107
H    24.80999947   6.39999962  53.34999847
