96

S    16.90000153  12.22000027  58.77999878
C    19.63000107  12.23000050  58.02000046
C    18.30999947  11.96000004  57.72999573
C    17.97000122  11.39000034  56.46999741
C    18.95000076  11.05999947  55.56000137
C    20.29000092  11.38000011  55.86999893
C    21.31000137  11.02000046  54.93999863
C    22.62000084  11.30000019  55.20999908
C    22.98000145  11.92999935  56.44000244
C    22.06999969  12.18000031  57.43999863
C    20.69999886  11.92000008  57.15000153
C    16.52000046  11.23000050  56.39999771
C    15.77999973  11.65999985  57.51999664
C    14.40999985  11.92000008  57.55000305
C    24.40000153  12.42000008  56.62000275
H    24.92050171  11.81393719  57.36153412
H    19.82999992  12.58999920  59.02000046
H    18.77000046  10.65000057  54.56999969
H    21.04000092  10.59000015  53.97999573
H    23.36999893  11.32999992  54.41999817
H    22.32000160  12.72999954  58.34000015
H    14.01000023  12.15000057  58.53000259
H    24.86999893  12.53999901  55.63000107
H    24.30000114  13.43000031  57.02999878
S    13.27000046  10.57000065  53.97999573
C    10.54999924  10.57999992  54.65000153
C    11.84000015  10.93999958  54.95999908
C    12.25000000  11.35000038  56.26999664
C    11.21000099  11.39000034  57.18999863
C     9.85999966  11.10000038  56.90000153
C     8.82000065  11.30000019  57.85999680
C     7.50999975  11.09000015  57.49000168
C     7.13000011  10.73999977  56.17000198
C     8.11999989  10.42000008  55.27000046
C     9.48999977  10.69000053  55.58000183
C    13.68999958  11.50000000  56.43000031
C    14.39000034  11.07999992  55.27000046
C    15.77000046  10.90999985  55.26000214
C     5.68000031  10.44000053  55.84000015
H     5.30981970  10.90984440  54.92878342
H    10.34999943  10.21000004  53.63999939
H    11.31000042  11.72999954  58.22000122
H     9.17000008  11.72999954  58.79000092
H     6.78999996  11.28999901  58.27999878
H     8.00000000  10.06999969  54.25000000
H    16.21999931  10.75000000  54.27999878
H     5.15999985  10.95999908  56.65000153
H     5.59000015   9.34000015  55.89000320
S    13.27000046   8.46000004  51.14999771
C    10.65999985   7.92000008  51.88999939
C    12.00000000   7.75000000  52.15999985
C    12.50000000   7.17000008  53.36999893
C    11.54999924   6.70000029  54.25000000
C    10.17000008   6.71999979  53.93000031
C     9.18000031   6.35999966  54.87999725
C     7.82999992   6.52999973  54.65000153
C     7.32999992   7.03999996  53.41999817
C     8.27999973   7.36000013  52.48000336
C     9.68000031   7.32999992  52.71999741
C    13.92000008   7.50999975  53.43000031
C    14.55000019   8.15999985  52.34000397
C    15.85000038   8.64000034  52.36999893
C     5.84999990   7.34000015  53.31999969
H     5.46124697   7.09967995  52.33044434
H    10.43000031   8.46000004  50.97000122
H    11.84999943   6.46000004  55.27000046
H     9.52000046   6.07999992  55.86999893
H     7.17999983   6.21000004  55.45999908
H     7.82999992   7.85000038  51.62000275
H    16.26000023   9.09000015  51.46999741
H     5.36000013   6.80999994  54.15000153
H     5.73999977   8.40999985  53.48999786
S    17.26000023   7.05999947  55.70999908
C    19.93000031   7.36999989  54.98000336
C    18.60999870   7.63000011  54.72000122
C    18.17000008   8.21000004  53.48999786
C    19.12999916   8.56999969  52.56000137
C    20.51000214   8.48999977  52.83000183
C    21.57999992   8.89000034  51.97999954
C    22.90999985   8.73000050  52.29000092
C    23.26000023   8.05999947  53.50000000
C    22.27000046   7.68000031  54.36999893
C    20.88999939   7.90000010  54.09000015
C    16.70999908   8.22000027  53.39000320
C    16.09000015   7.53000021  54.45999908
C    14.72000027   7.30999994  54.55999756
C    24.65999985   7.53000021  53.68000031
H    25.26370239   8.11239433  54.37603378
H    20.19000053   6.80000019  55.87999725
H    18.81999969   8.96000004  51.59000015
H    21.32999802   9.39999962  51.04999924
H    23.64000130   8.98999977  51.52999878
H    22.53000069   7.30999994  55.35999680
H    14.34999943   6.84999990  55.47000122
H    25.23999977   7.39000034  52.76000214
H    24.54999924   6.51000023  54.06000137
