96

S    17.14999962  12.23000050  58.86000061
C    19.80999947  12.32999992  58.15000153
C    18.52000046  12.10000038  57.72999573
C    18.11000061  11.63000011  56.44000244
C    19.09000015  11.46999931  55.47999954
C    20.43999863  11.71000004  55.83000183
C    21.48999977  11.57999992  54.87999725
C    22.79999924  11.94000053  55.12000275
C    23.12999916  12.43000031  56.40999603
C    22.14999962  12.56000042  57.36999893
C    20.79000092  12.18999958  57.14000320
C    16.67000008  11.39000034  56.36000061
C    16.03000069  11.80999947  57.55000305
C    14.65999985  11.75000000  57.77999878
C    24.56000137  12.77999973  56.76000214
H    24.99539566  12.18043995  57.55941391
H    20.10999870  12.56000042  59.15999985
H    18.78999901  11.31000042  54.45000076
H    21.14999962  11.25000000  53.89999771
H    23.52999878  11.80999947  54.33000183
H    22.32999992  13.10999966  58.29000092
H    14.27000046  12.05999947  58.74000168
H    25.20000076  12.79999924  55.86999893
H    24.63999939  13.78999901  57.18999863
S    13.27000046  10.52999973  54.27000046
C    10.59999943  10.80000019  54.92000198
C    11.90999985  10.95000076  55.33000183
C    12.36999989  11.39000034  56.60999680
C    11.36999989  11.67000008  57.51999664
C    10.00000000  11.47999954  57.22999954
C     8.97000027  11.46000004  58.22000122
C     7.67000008  11.10000038  57.95000076
C     7.30000019  10.62999916  56.65999985
C     8.30000019  10.53999996  55.72000122
C     9.61999989  11.00999928  55.93000031
C    13.81999969  11.38000011  56.72000122
C    14.45000076  10.86999989  55.56000137
C    15.81999969  10.90999985  55.35999680
C     5.91000032  10.07999992  56.45000076
H     5.32181311  10.70361900  55.77677536
H    10.40999985  10.21000004  54.02999878
H    11.76000023  11.95000076  58.50000000
H     9.22000027  11.68000031  59.26000214
H     6.98999977  10.98000050  58.77999878
H     8.14999962   9.96000004  54.80999756
H    16.31000137  10.71000004  54.40999985
H     5.40000010   9.96999931  57.42000198
H     5.95000029   9.06999969  56.00999832
S    13.76000023   8.71999931  51.27999878
C    11.21999931   7.88999987  52.08000183
C    12.57999992   7.73999977  52.16999817
C    13.09000015   7.16000032  53.37999725
C    12.22000027   6.65999985  54.31999969
C    10.84000015   7.00000000  54.31000137
C     9.85000038   6.42000008  55.14999771
C     8.50000000   6.60000038  54.95999908
C     8.02999973   7.39000034  53.87000275
C     8.92000008   7.86000013  52.93000031
C    10.29000092   7.53999996  53.09000015
C    14.50000000   7.48000050  53.56999969
C    14.96999931   8.30000019  52.50999832
C    16.28999901   8.71999931  52.43999863
C     6.54999971   7.67000008  53.80000305
H     6.16361570   7.30508137  52.84835052
H    10.90999985   8.40999985  51.17000198
H    12.55000019   5.89999962  55.02999878
H    10.17000008   5.73999977  55.93999863
H     7.78999996   6.10000038  55.59999847
H     8.67000008   8.47999954  52.08000183
H    16.62999916   9.30000019  51.59000015
H     5.92999983   7.09999990  54.50000000
H     6.24000025   8.73000050  53.79000092
S    17.89999962   7.34000015  55.72999954
C    20.53999901   7.90000010  54.92000198
C    19.18000031   8.06999969  54.75000000
C    18.60999870   8.48999977  53.50999832
C    19.50000000   8.96000004  52.56000137
C    20.90999985   8.94999981  52.69000244
C    21.80999947   9.43000031  51.70000076
C    23.16999817   9.39999962  51.88000107
C    23.62999916   8.82000065  53.09000015
C    22.81999969   8.23000050  54.03999710
C    21.40999985   8.30000019  53.88000107
C    17.15999985   8.34999943  53.47999954
C    16.60000038   7.60999966  54.54999924
C    15.29999924   7.11000013  54.65000153
C    25.10999870   8.78999996  53.39000320
H    25.37972450   8.62674618  54.43341064
H    20.81999969   7.46000004  55.86999893
H    19.10000038   9.27999973  51.59999847
H    21.35000038   9.81999969  50.79999924
H    23.85000038   9.70000076  51.09000397
H    23.21000099   7.69000006  54.88999939
H    15.08999920   6.46000004  55.50000000
H    25.69000053   9.64999962  53.02999878
H    25.56999969   7.92999983  52.87000275
