96

S    16.88999939  12.06999969  58.81000137
C    19.62000084  12.20999908  58.11000061
C    18.32999992  11.82000065  57.81000137
C    18.02000046  11.18999958  56.56000137
C    19.04000092  11.05999947  55.63999939
C    20.36999893  11.46000004  55.91999817
C    21.45000076  11.26999950  55.00999832
C    22.75000000  11.57999992  55.34000015
C    23.06999969  12.17000008  56.58000183
C    22.06000137  12.30999947  57.50000000
C    20.69999886  12.02999973  57.19999695
C    16.57999992  11.02000046  56.42000198
C    15.81999969  11.40999985  57.55000305
C    14.44000053  11.50000000  57.56000137
C    24.51999855  12.51000023  56.84999847
H    24.92561913  11.99052238  57.71816635
H    19.84000015  12.65999985  59.06999969
H    18.76000023  10.72000027  54.65000153
H    21.32999802  10.88999939  53.99000168
H    23.45999908  11.47999954  54.52999878
H    22.26000023  12.71999931  58.48999786
H    13.90999985  11.80999947  58.46000290
H    25.12000084  12.30000019  55.96000290
H    24.46000099  13.57999992  57.06999969
S    13.48999977  10.52000046  53.76999664
C    10.77000046  10.59000015  54.31000137
C    12.05000019  10.84000015  54.75000000
C    12.38999939  11.21999931  56.09000397
C    11.33999920  11.39999962  56.97000122
C    10.01999950  11.10000038  56.56000137
C     8.92000008  11.26000023  57.44999695
C     7.59999990  11.06999969  57.12999725
C     7.34000015  10.50000000  55.84999847
C     8.34999943  10.31000042  54.93999863
C     9.68000031  10.72999954  55.20999908
C    13.81999969  11.23000050  56.32999802
C    14.53999996  10.81999969  55.17000198
C    15.92000008  10.72000027  55.21999741
C     5.91000032  10.11999989  55.52999878
H     5.43182087  10.83370018  54.85912323
H    10.75000000   9.89000034  53.47999954
H    11.56999969  11.79999924  57.95999908
H     9.19999981  11.64000034  58.43000031
H     6.88000011  11.10999966  57.94000244
H     8.10999966   9.89999962  53.95999908
H    16.40999985  10.52999973  54.27000046
H     5.29999971  10.03000069  56.44000244
H     5.84000015   9.10000038  55.14999771
S    17.20999908  12.53999901  52.88999939
C    19.92000008  12.61999989  52.21000290
C    18.65999985  12.15999985  51.93999863
C    18.32999992  11.65999985  50.63999939
C    19.36000061  11.44000053  49.73999786
C    20.71000099  11.75000000  50.05000305
C    21.73999977  11.50000000  49.09999847
C    23.01000214  11.92999935  49.38999939
C    23.32999992  12.68000031  50.56000137
C    22.32999992  12.86999893  51.47999573
C    20.98999977  12.42000008  51.29000092
C    16.90000153  11.72000027  50.35999680
C    16.18000031  12.18999958  51.49000168
C    14.80000019  12.35000038  51.47999573
C    24.75000000  13.15999985  50.76000214
H    25.17089462  12.68203545  51.64459229
H    20.10000038  13.09000015  53.16999817
H    19.25000000  11.10000038  48.70999908
H    21.47000122  11.06999969  48.13999939
H    23.81000137  11.73999977  48.68999863
H    22.50000000  13.22999954  52.49000168
H    14.34999943  12.57999992  52.43999863
H    25.30999947  12.84000015  49.86999893
H    24.76000023  14.26000023  50.83000183
S    13.78999901  10.92000008  47.90000153
C    11.06999969  10.80000019  48.50000000
C    12.34000015  11.16000080  48.88999939
C    12.67000008  11.76000023  50.14999771
C    11.68000031  11.85999966  51.10000229
C    10.34000015  11.72000027  50.65999985
C     9.22999954  11.94000053  51.52999878
C     7.92000008  11.75000000  51.17000198
C     7.65999985  11.13999939  49.91000366
C     8.67000008  10.85000038  49.02999878
C    10.01999950  11.17000008  49.36999893
C    14.09999943  11.98999977  50.31999969
C    14.82999992  11.51999950  49.20000076
C    16.20000076  11.26999950  49.22999954
C     6.34000015  10.43000031  49.68000031
H     5.77648020  10.98638821  48.93101501
H    10.80000019  10.27999973  47.58999634
H    11.90999985  12.28999996  52.08000183
H     9.47000027  12.23000050  52.55000305
H     7.13999987  11.82000065  51.91999817
H     8.56999969  10.21999931  48.15000153
H    16.72999954  10.84000015  48.39000320
H     5.71000004  10.22999954  50.56000137
H     6.57000017   9.44000053  49.25000000
