96

S    16.67000008  12.20000076  58.69999695
C    19.36000061  12.28000069  58.09000015
C    18.11000061  11.80999947  57.75000000
C    17.65999985  11.32999992  56.47999573
C    18.65999985  10.98000050  55.59000015
C    19.97999954  11.42000008  55.84999847
C    21.04000092  11.28999901  54.91000366
C    22.29000092  11.84999943  55.06999969
C    22.63999939  12.31999969  56.36000061
C    21.68999863  12.41000080  57.35000229
C    20.35000038  12.00000000  57.11000061
C    16.21999931  11.33999920  56.25999832
C    15.51000023  11.77000046  57.42000198
C    14.11999893  11.79999924  57.42000198
C    24.05999947  12.64999962  56.76000214
H    24.56478310  11.93903732  57.41408539
H    19.60000038  12.77999973  59.02000046
H    18.45999908  10.52999973  54.61999893
H    20.71000099  10.81999969  53.97999573
H    23.05000114  11.76000023  54.29999924
H    21.94999886  12.76000023  58.34000015
H    13.71000099  12.23000050  58.33000183
H    24.63000107  12.76999950  55.83000183
H    24.17000008  13.61999989  57.27000427
S    12.96000004  10.44999981  53.86000061
C    10.31999969  10.29999924  54.59999847
C    11.61000061  10.59000015  54.99000168
C    11.92000008  11.19999981  56.25000000
C    10.90000057  11.36000061  57.16999817
C     9.56999969  11.02000046  56.81000137
C     8.50000000  11.25000000  57.71999741
C     7.23000002  10.85999966  57.37999725
C     6.90999985  10.31000042  56.11000061
C     7.90999985  10.14000034  55.19000244
C     9.26000023  10.44000053  55.52999878
C    13.36999989  11.39999962  56.31000137
C    14.06000042  10.95000076  55.15999603
C    15.44999981  10.92000008  55.17000198
C     5.52999973   9.80000019  55.75000000
H     5.03870392  10.40522003  54.98813629
H    10.15999985   9.92999935  53.59000397
H    11.13999939  11.57999992  58.20000076
H     8.78999996  11.69000053  58.67000198
H     6.47000027  10.98999977  58.13999939
H     7.62000036   9.77999973  54.20999908
H    15.92000008  10.48999977  54.29000092
H     4.92000008   9.77000046  56.66999817
H     5.51999998   8.78000069  55.34000015
S    13.02999973   8.42000008  51.00999832
C    10.36999893   7.82999992  51.56999969
C    11.69999981   7.65999985  51.88999939
C    12.13000107   6.97000027  53.06999969
C    11.21999931   6.42000008  53.95999908
C     9.84000015   6.65999985  53.75000000
C     8.80999947   6.06999969  54.54000092
C     7.50999975   6.44000006  54.29000092
C     7.14999962   7.20000029  53.13999939
C     8.10000038   7.62000036  52.23999786
C     9.46000004   7.31999969  52.52999878
C    13.57999992   6.94000006  53.20000076
C    14.17000008   7.67000008  52.14000320
C    15.47000027   8.14000034  52.25000000
C     5.69999981   7.23999977  52.70999908
H     5.46641827   6.58880329  51.86769104
H    10.01000023   8.46000004  50.76000214
H    11.64000034   5.82999992  54.77000427
H     9.03999996   5.49000025  55.41999817
H     6.76999998   5.98999977  54.93999863
H     7.90000010   8.10999966  51.29000092
H    15.93999958   8.73000050  51.46999741
H     5.07000017   7.02000046  53.57999802
H     5.50000000   8.19000053  52.21000290
S    16.79999924   6.47000027  55.63999939
C    19.44000053   7.39000034  55.13000107
C    18.09000015   7.39000034  54.85000229
C    17.63000107   7.97999954  53.61999893
C    18.52000046   8.69999981  52.83000183
C    19.92000008   8.56999969  53.02000046
C    20.89999962   9.11999989  52.15000153
C    22.26000023   9.01000023  52.34000397
C    22.72000122   8.23999977  53.44999695
C    21.78999901   7.72000027  54.31999969
C    20.38999939   7.88999987  54.20000076
C    16.21999931   7.75000000  53.36999893
C    15.70000076   6.78999996  54.27999878
C    14.35999966   6.43000031  54.25000000
C    24.17000008   7.88999987  53.67000198
H    24.66030312   8.51531410  54.41611481
H    19.78000069   6.69000053  55.89000320
H    18.15000153   9.13000011  51.90999985
H    20.52000046   9.71000004  51.31999969
H    22.95000076   9.46000004  51.63000107
H    22.20999908   7.09999990  55.11000061
H    13.81000042   6.01999998  55.08999634
H    24.73999977   8.05000019  52.74000168
H    24.27999878   6.83000040  53.90999603
