96

S    16.43000031  12.20000076  58.74000168
C    19.12999916  12.20000076  57.98999786
C    17.81999969  11.92999935  57.67000198
C    17.38999939  11.51000023  56.37000275
C    18.39999962  11.17000008  55.47999954
C    19.76000023  11.47999954  55.73999786
C    20.71000099  11.39000034  54.68000031
C    22.01999855  11.77000046  54.86000061
C    22.39000130  12.36999989  56.09000397
C    21.50000000  12.41000080  57.14000320
C    20.13000107  12.07999992  56.98999786
C    15.93999958  11.50000000  56.23000336
C    15.27999973  11.84000015  57.43999863
C    13.89000034  11.90000057  57.45999908
C    23.81999969  12.77999973  56.33999634
H    24.29670906  12.15387344  57.09419632
H    19.32999992  12.60000038  58.97999573
H    18.23999977  10.77999973  54.47999954
H    20.45999908  10.98999977  53.69999695
H    22.67999840  11.56000042  54.02000046
H    21.78999901  12.94999981  58.04000092
H    13.40000057  12.23000050  58.37999725
H    24.34000015  12.69999981  55.38000107
H    23.85000038  13.86000061  56.56000137
S    12.81999969  10.93000031  53.72000122
C    10.11000061  10.70000076  54.51000214
C    11.40999985  11.05999947  54.79000092
C    11.76000023  11.49000072  56.11000061
C    10.80000019  11.61000061  57.09999847
C     9.44000053  11.36000061  56.79999924
C     8.34999943  11.59000015  57.69000244
C     7.05999947  11.23000050  57.37999725
C     6.72999954  10.73999977  56.09000397
C     7.73999977  10.62000084  55.17000198
C     9.10000038  10.95000076  55.45999908
C    13.20000076  11.52999973  56.30000305
C    13.89999962  11.21999931  55.11000061
C    15.27999973  11.05000019  55.08999634
C     5.32000017  10.32999992  55.72000122
H     4.92967606  10.94742203  54.91096497
H     9.89000034  10.38000011  53.48999786
H    11.03999996  11.90999985  58.11999893
H     8.56999969  11.94000053  58.68999863
H     6.26999950  11.33999920  58.13000107
H     7.46000004  10.18000031  54.22000122
H    15.70000076  10.85000038  54.10999680
H     4.73000002  10.48999977  56.63000107
H     5.28999996   9.27999973  55.41999817
S    16.90000153  12.81000042  52.72999573
C    19.62000084  12.89000034  52.00000000
C    18.32999992  12.53000069  51.70999908
C    17.94000053  11.90999985  50.47999954
C    18.94000053  11.64999962  49.55999756
C    20.28000069  12.02999973  49.80999756
C    21.28000069  11.92999935  48.80000305
C    22.60000038  12.23999977  49.01000214
C    22.93999863  12.81999969  50.26000214
C    22.01000023  13.03999996  51.25000000
C    20.65000153  12.67000008  51.04000092
C    16.51000023  12.06999969  50.22999573
C    15.78999996  12.46999931  51.38000107
C    14.40000057  12.51000023  51.37000275
C    24.40000153  13.07999992  50.52999878
H    24.91960144  12.30416012  51.09230423
H    19.89999962  13.42000008  52.90999985
H    18.73999977  11.26000023  48.56999969
H    20.98999977  11.46000004  47.87000275
H    23.34000015  12.15999985  48.20999908
H    22.27999878  13.43999958  52.22000122
H    13.96000004  12.79000092  52.32999802
H    24.86000061  13.30999947  49.55999756
H    24.59000015  14.04999924  50.98999786
S    13.36999989  11.13999939  47.84000015
C    10.67999935  11.13000011  48.40000153
C    11.92999935  11.56000042  48.77999878
C    12.22000027  12.20000076  50.02999878
C    11.19999981  12.48000050  50.90999985
C     9.89999962  12.01000023  50.61999893
C     8.80000019  12.13999939  51.52000046
C     7.50999975  11.79999924  51.16000366
C     7.35000038  11.09000015  49.93999863
C     8.36000061  10.88999939  49.02999878
C     9.67000008  11.32999992  49.36999893
C    13.67000008  12.23000050  50.20999908
C    14.44000053  11.76000023  49.12000275
C    15.81999969  11.77000046  49.05000305
C     5.92999983  10.67999935  49.65000153
H     5.40222406  11.53585243  49.22920609
H    10.43000031  10.55999947  47.50999832
H    11.43000031  12.90999985  51.88000107
H     9.06999969  12.43000031  52.52999878
H     6.69000053  11.77999973  51.86999893
H     8.15999985  10.47999954  48.04000092
H    16.31000137  11.51999950  48.11000061
H     5.49000025  10.34999943  50.59000015
H     6.07999992   9.84000015  48.95999908
