96

S    16.54999924  12.18000031  58.89999771
C    19.27999878  12.31999969  58.25000000
C    18.01000023  11.90000057  57.91999817
C    17.64000130  11.38000011  56.63999939
C    18.61999893  11.26999950  55.66999817
C    19.93999863  11.71000004  55.93999863
C    20.97999954  11.44999981  55.00000000
C    22.27000046  11.78999996  55.34999847
C    22.60000038  12.32999992  56.62000275
C    21.61999893  12.56999969  57.55000305
C    20.28000069  12.20999908  57.23999786
C    16.20000076  11.33999920  56.44000244
C    15.46000004  11.77999973  57.56000137
C    14.06999969  11.77000046  57.69000244
C    24.01000023  12.71000004  57.02000046
H    24.49905777  11.94451904  57.62246323
H    19.48999977  12.72999954  59.22999954
H    18.30999947  10.82999992  54.72999954
H    20.71000099  10.90999985  54.09000015
H    23.09000015  11.46999931  54.71000290
H    21.87000084  12.93000031  58.54000092
H    13.63000011  12.10000038  58.62999725
H    24.60000038  13.05999947  56.16000366
H    23.92000008  13.61999989  57.62000275
S    13.05999947  10.36999893  54.06999969
C    10.32999992  10.62000084  54.62999725
C    11.63000011  10.78999996  55.04000092
C    11.90000057  11.26999950  56.36000061
C    10.86999989  11.61000061  57.21000290
C     9.52999973  11.36000061  56.84000015
C     8.46000004  11.47999954  57.77000046
C     7.17000008  11.10999966  57.45999908
C     6.89000034  10.67000008  56.13999939
C     7.88000011  10.65000057  55.19000244
C     9.25000000  10.86999989  55.51000214
C    13.34000015  11.38000011  56.56999969
C    14.06000042  10.92000008  55.43000031
C    15.44000053  10.82999992  55.38000107
C     5.55000019  10.03999901  55.83000183
H     4.97995615  10.65279770  55.13169861
H    10.21000004  10.19000053  53.63999939
H    11.09000015  12.06999969  58.16999817
H     8.67000008  11.87999916  58.75999832
H     6.34999990  11.02000046  58.16999817
H     7.75000000  10.22999954  54.19000244
H    15.92000008  10.44999981  54.47999954
H     4.97000027   9.94999981  56.76000214
H     5.75000000   9.03999996  55.43000031
S    13.15999985   8.39999962  51.07999802
C    10.53999996   8.02999973  51.77999878
C    11.84999943   7.79999971  52.11000061
C    12.35000038   7.13999987  53.27999878
C    11.39000034   6.61000013  54.13000107
C    10.01000023   6.83000040  53.89999771
C     9.02999973   6.23000050  54.73999786
C     7.69999981   6.30999994  54.41999817
C     7.23999977   7.13000011  53.34999847
C     8.19000053   7.76000023  52.57999802
C     9.59000015   7.57000017  52.74000168
C    13.80000019   7.25000000  53.34000015
C    14.34999943   8.10999966  52.36000061
C    15.62000084   8.65999985  52.45999908
C     5.75000000   7.30000019  53.16999817
H     5.35790968   6.85087872  52.25749969
H    10.21000004   8.59000015  50.90999985
H    11.59000015   6.19000006  55.11000061
H     9.46000004   5.56999969  55.48999786
H     6.97000027   5.82000017  55.06000137
H     7.97999954   8.56999969  51.88000107
H    16.00000000   9.22000027  51.60999680
H     5.14999962   6.90000010  54.00000000
H     5.56999969   8.38000011  53.16999817
S    16.98999977   7.21000004  55.89000320
C    19.68000031   7.63999987  55.19000244
C    18.35000038   7.79999971  54.89999771
C    17.88999939   8.34000015  53.66000366
C    18.78999901   8.82000065  52.72999573
C    20.15999985   8.55000019  52.97000122
C    21.12999916   8.93000031  52.01000214
C    22.47999954   8.78999996  52.23999786
C    22.89999962   8.21000004  53.46000290
C    22.01999855   7.71000004  54.40999985
C    20.63999939   7.96999979  54.20000076
C    16.44000053   8.23999977  53.52000427
C    15.84000015   7.48000050  54.55999756
C    14.57999992   6.91999960  54.45999908
C    24.37000084   7.94000053  53.68000031
H    24.85502434   8.36796284  54.55732727
H    20.10000038   7.13000011  56.04999924
H    18.43000031   9.26999950  51.81000137
H    20.86999893   9.44000053  51.07999802
H    23.19000053   8.96000004  51.43000031
H    22.25000000   7.32999992  55.40000153
H    14.06000042   6.44999981  55.28999710
H    24.86999893   8.07999992  52.70999908
H    24.14999962   6.86999989  53.79000092
