96

S    16.39999962  12.17000008  58.68000031
C    19.10000038  12.30999947  58.02000046
C    17.84000015  11.84999943  57.70000076
C    17.53999901  11.26999950  56.43000031
C    18.53999901  11.14999962  55.48999786
C    19.82999992  11.69000053  55.73999786
C    20.90999985  11.51999950  54.84000397
C    22.20999908  11.77000046  55.22999573
C    22.55000114  12.20999908  56.52999878
C    21.51000023  12.28999996  57.43000031
C    20.13999939  12.11999989  57.08000183
C    16.10000038  11.28999901  56.22000122
C    15.32999992  11.61999893  57.36999893
C    13.94999981  11.69000053  57.44999695
C    23.95000076  12.65999985  56.90999985
H    24.45036316  11.92375088  57.53902817
H    19.31999969  12.67000008  59.02999878
H    18.27999878  10.71000004  54.52999878
H    20.72000122  10.95999908  53.93000031
H    23.01000214  11.56999969  54.52000046
H    21.63999939  12.60000038  58.46000290
H    13.45999908  11.92999935  58.39000320
H    24.54999924  12.93000031  56.03000259
H    23.85000038  13.55999947  57.52999878
S    12.86000061  10.80000019  53.76999664
C    10.13000011  10.59000015  54.41999817
C    11.43000031  10.75000000  54.81999969
C    11.77999973  11.00999928  56.18999863
C    10.76000023  11.13999939  57.11000061
C     9.39000034  11.05000019  56.79000092
C     8.27999973  11.36999989  57.63000107
C     7.00000000  11.18000031  57.18000031
C     6.76000023  10.57999992  55.91999817
C     7.78999996  10.52000046  55.00999832
C     9.13000011  10.81999969  55.40000153
C    13.21000004  11.28999901  56.33999634
C    13.94000053  11.13999939  55.13000107
C    15.32999992  11.03999996  55.07999802
C     5.40000010  10.06999969  55.51000214
H     4.89521694  10.72408485  54.79904175
H     9.85999966  10.42000008  53.37999725
H    10.98999977  11.63000011  58.04999924
H     8.46000004  11.54999924  58.68999863
H     6.17999983  11.44999981  57.84000015
H     7.60999966  10.06999969  54.03999710
H    15.70000076  10.69000053  54.13000107
H     4.76000023  10.01000023  56.39999771
H     5.46000004   9.04999924  55.08999634
S    16.95999908  12.74000072  52.54000092
C    19.70000076  12.64999962  52.04000092
C    18.42000008  12.38999939  51.59999847
C    18.06999969  11.82999992  50.31999969
C    19.12999916  11.46000004  49.52000046
C    20.46999931  11.64999962  49.93999863
C    21.53000069  11.56999969  48.97999573
C    22.79000092  12.02999973  49.27999878
C    23.09000015  12.56999969  50.56000137
C    22.09000015  12.76999950  51.47999573
C    20.76999855  12.35999966  51.14999771
C    16.64999962  11.69000053  50.06999969
C    15.93999958  12.10999966  51.23000336
C    14.55000019  12.15999985  51.31999969
C    24.48999786  13.03999996  50.87999725
H    24.93136787  12.44201660  51.67731094
H    19.75000000  13.25000000  52.94000244
H    18.92000008  11.16000080  48.50000000
H    21.25999832  11.14999962  48.02000046
H    23.62999916  11.78999996  48.63999939
H    22.21999931  13.26000023  52.43999863
H    14.04999924  12.69000053  52.11999893
H    25.03000069  13.15999985  49.93000031
H    24.37000084  14.01999950  51.36000061
S    13.43000031  10.76000023  47.76000214
C    10.75000000  10.52999973  48.54999924
C    12.01000023  11.03000069  48.79000092
C    12.38000011  11.59999943  50.05000305
C    11.38000011  11.87000084  50.96000290
C    10.03000069  11.57999992  50.65999985
C     8.89000034  11.84999943  51.46999741
C     7.57999992  11.47999954  51.29000092
C     7.31999969  10.88999939  50.01999664
C     8.32999992  10.67000008  49.12000275
C     9.70000076  10.92000008  49.41999817
C    13.82999992  11.72999954  50.20000076
C    14.52999973  11.23999977  49.06999969
C    15.90999985  11.23000050  48.96999741
C     5.98000002  10.26000023  49.72000122
H     5.48881960  10.75118065  48.88001251
H    10.43000031  10.03000069  47.63999939
H    11.65999985  12.20000076  51.95999908
H     9.13000011  12.43000031  52.36999893
H     6.76999998  11.69999981  51.97999954
H     8.10999966  10.03999901  48.26000214
H    16.44000053  10.88999939  48.08000183
H     5.40999985  10.53999996  50.61000061
H     6.09000015   9.17000008  49.65000153
