96

S    16.54999924  12.25999928  58.85000229
C    19.27000046  12.31999969  58.29999924
C    17.98999977  12.13000107  57.83000183
C    17.67000008  11.85999966  56.45999908
C    18.71000099  11.82999992  55.54000092
C    20.03999901  12.03999996  55.97000122
C    21.17000198  11.92000008  55.12000275
C    22.46999931  12.15000057  55.51000214
C    22.70999908  12.50000000  56.86999893
C    21.65999985  12.56000042  57.75000000
C    20.31999969  12.35999966  57.34000397
C    16.22999954  11.72000027  56.27999878
C    15.48999977  11.98999977  57.44999695
C    14.11000061  12.06999969  57.49000168
C    24.13000107  12.71000004  57.35000229
H    24.63628197  11.89709568  57.87054443
H    19.56999969  12.48999977  59.33000183
H    18.67000008  11.56000042  54.48999786
H    20.92000008  11.71000004  54.08000183
H    23.22999954  12.10999966  54.73999786
H    21.90999985  12.81000042  58.77999878
H    13.59000015  12.06999969  58.43999863
H    24.79000092  13.01000023  56.52000046
H    24.07999992  13.57999992  58.02000046
S    12.97000027  11.05000019  53.86000061
C    10.22999954  10.93999958  54.61000061
C    11.54000092  11.21000099  54.91000366
C    11.95000076  11.56000042  56.23000336
C    10.98999977  11.64000034  57.22000122
C     9.63000011  11.36000061  56.93000031
C     8.59000015  11.39000034  57.88999939
C     7.31999969  10.95000076  57.56999969
C     6.89000034  10.77999973  56.23000336
C     7.86000013  10.67999935  55.27000046
C     9.22000027  10.97000027  55.61000061
C    13.38999939  11.80999947  56.31999969
C    14.11999893  11.44999981  55.14999771
C    15.51000023  11.49000072  55.10000229
C     5.50000000  10.34000015  55.83000183
H     5.13660526  10.91003036  54.97495270
H     9.94999981  10.64000034  53.61000061
H    11.30000019  11.84999943  58.23999786
H     8.80000019  11.64999962  58.93000031
H     6.63000011  10.90000057  58.40000153
H     7.69000006  10.44000053  54.22000122
H    16.03999901  11.23000050  54.19000244
H     4.88999987  10.44999981  56.73999786
H     5.59999990   9.26000023  55.65999985
S    17.23999977  12.88000011  52.43999863
C    19.89999962  13.12000084  51.65000153
C    18.61999893  12.69999981  51.35000229
C    18.27000046  12.07999992  50.11000061
C    19.26000023  11.96000004  49.13999939
C    20.56999969  12.42000008  49.41999817
C    21.57999992  12.25000000  48.43999863
C    22.85000038  12.75000000  48.66000366
C    23.19999886  13.27999973  49.93000031
C    22.25000000  13.50000000  50.90000153
C    20.94000053  13.00000000  50.68999863
C    16.84000015  11.89000034  49.94999695
C    16.18000031  12.34000015  51.11999893
C    14.80999947  12.53999901  51.22000122
C    24.61999893  13.71000099  50.25000000
H    25.05366707  13.17680264  51.09600830
H    20.02000046  13.71000099  52.55000305
H    19.03000069  11.46000004  48.20000076
H    21.31999969  11.84999943  47.47000122
H    23.59000015  12.57999992  47.88999939
H    22.56000137  13.92000008  51.84999847
H    14.29999924  12.81000042  52.12999725
H    25.22000122  13.63000011  49.34000015
H    24.65999985  14.75000000  50.61000061
S    13.60999966  11.23000050  47.58999634
C    10.93000031  11.19999981  48.41999817
C    12.23999977  11.56000042  48.66000366
C    12.68000031  12.10999966  49.89999771
C    11.72000027  12.27000046  50.87999725
C    10.36999893  11.90000057  50.68000031
C     9.36999989  12.05000019  51.66999817
C     8.06999969  11.63000011  51.44000244
C     7.76000023  10.85000038  50.30000305
C     8.65999985  10.72999954  49.27000046
C     9.98000050  11.23000050  49.47000122
C    14.13000011  12.18999958  50.04000092
C    14.75000000  11.75000000  48.85000229
C    16.11999893  11.56999969  48.79000092
C     6.35999966  10.31999969  50.06000137
H     5.88952208  10.99720192  49.34715652
H    10.57999992  10.80000019  47.47000122
H    11.94000053  12.76000023  51.83000183
H     9.65999985  12.56000042  52.57999802
H     7.30000019  12.03999996  52.08000183
H     8.32999992  10.36000061  48.29999924
H    16.61999893  11.26999950  47.87000275
H     5.82999992  10.21000004  51.00999832
H     6.38000011   9.35999966  49.52999878
