96

S    16.32999992  12.05999947  58.82999802
C    19.04999924  11.97999954  58.09000015
C    17.72999954  11.73999977  57.77999878
C    17.35000038  11.30000019  56.46999741
C    18.36000061  10.92000008  55.61000061
C    19.72999954  11.19999981  55.86999893
C    20.73999786  10.95000076  54.89999771
C    22.01999855  11.39999962  55.10000229
C    22.32999992  12.13999939  56.27999878
C    21.38999939  12.32999992  57.27000427
C    20.05000114  11.89000034  57.09000015
C    15.90000057  11.25000000  56.30000305
C    15.26999950  11.84000015  57.42000198
C    13.88000011  11.90000057  57.52999878
C    23.72999954  12.67000008  56.47999573
H    24.25696373  12.15727997  57.28468704
H    19.30999947  12.30999947  59.09000015
H    18.13999939  10.48999977  54.64000320
H    20.58000183  10.38000011  53.99000168
H    22.86000061  11.26000023  54.41999817
H    21.70000076  12.65999985  58.26000214
H    13.42000008  12.02000046  58.50000000
H    24.30000114  12.69000053  55.54999924
H    23.62999916  13.71000099  56.83000183
S    12.69000053  10.47000027  54.00000000
C     9.94000053  10.60999966  54.68000031
C    11.26000023  10.80000019  55.00000000
C    11.68000031  11.28999901  56.27999878
C    10.72000027  11.56999969  57.23999786
C     9.35000038  11.35000038  56.95000076
C     8.32999992  11.57999992  57.91999817
C     7.00000000  11.39000034  57.63999939
C     6.60000038  10.88999939  56.37000275
C     7.55999994  10.60999966  55.43000031
C     8.93999958  10.86999989  55.65999985
C    13.12000084  11.46999931  56.43000031
C    13.80000019  10.97000027  55.28999710
C    15.17000008  10.77000046  55.20999908
C     5.13999987  10.55999947  56.12999725
H     4.67728329  11.00136089  55.24727631
H     9.67000008  10.11999989  53.75000000
H    11.09000015  11.98999977  58.16999817
H     8.57999992  12.01000023  58.88000107
H     6.23000050  11.56000042  58.37999725
H     7.34000015  10.21000004  54.45000076
H    15.67999935  10.29000092  54.38000107
H     4.65000010  10.93999958  57.02999878
H     5.01999950   9.48000050  55.96000290
S    13.73999977   8.43999958  51.13999939
C    11.10999966   7.97999954  51.75000000
C    12.42000008   7.76000023  52.11000061
C    12.84000015   7.27999973  53.39000320
C    11.87000084   6.90000010  54.29999924
C    10.52000046   7.07000017  53.95000076
C     9.53999996   6.46000004  54.78000259
C     8.19999981   6.57999992  54.47000122
C     7.78999996   7.44999981  53.43000031
C     8.71999931   7.96999979  52.56000137
C    10.11000061   7.73000002  52.72999573
C    14.27999973   7.46999979  53.54999924
C    14.91000080   8.07999992  52.43000031
C    16.26000023   8.42000008  52.39999771
C     6.32999992   7.79999971  53.18000031
H     5.83184958   7.05989075  52.55375290
H    10.81999969   8.47000027  50.81999969
H    12.18000031   6.17000008  55.05000305
H     9.89999962   5.71000004  55.47000122
H     7.46999979   5.93999958  54.94999695
H     8.38999939   8.57999992  51.72999954
H    16.77000046   8.94999981  51.59999847
H     5.80999947   7.78999996  54.13999939
H     6.15999985   8.76999950  52.69000244
S    17.71000099   6.81999969  55.70999908
C    20.36999893   7.42000008  54.94999695
C    19.01000023   7.46999979  54.69999695
C    18.54999924   8.09000015  53.48999786
C    19.45000076   8.47999954  52.51999664
C    20.82999992   8.23999977  52.70999908
C    21.77000046   8.67000008  51.72999954
C    23.12000084   8.76000023  52.01000214
C    23.61000061   8.14000034  53.18999863
C    22.73999977   7.59999990  54.10999680
C    21.32999802   7.67000008  53.94000244
C    17.09000015   8.05999947  53.46000290
C    16.48999977   7.37999964  54.54999924
C    15.11999989   7.13999987  54.61000061
C    25.05000114   8.36000061  53.59000397
H    25.25563431   8.06218719  54.61816788
H    20.65000153   7.22000027  55.97999954
H    19.11999893   8.80999947  51.53999710
H    21.31999969   9.13000011  50.86000061
H    23.72999954   9.40999985  51.38999939
H    23.15000153   7.26000023  55.06000137
H    14.67000008   6.71000004  55.50000000
H    25.48000145   9.35999966  53.50000000
H    25.66999817   7.68000031  52.98999786
