96

S    16.39999962  12.50000000  58.50999832
C    19.11000061  12.30999947  58.04999924
C    17.84000015  12.11999989  57.55000305
C    17.52000046  11.44000053  56.32999802
C    18.56999969  11.10000038  55.48999786
C    19.90999985  11.23999977  55.93000031
C    20.96999931  11.28000069  54.98000336
C    22.20999908  11.77999973  55.27999878
C    22.52000046  12.23000050  56.59999847
C    21.47999954  12.34000015  57.49000168
C    20.15999985  11.92000008  57.16999817
C    16.09000015  11.39000034  56.11000061
C    15.34999943  11.95000076  57.18999863
C    13.97999954  11.87999916  57.36999893
C    23.88000107  12.82999992  56.86999893
H    24.53711128  12.10860634  57.35569382
H    19.19999886  12.74000072  59.03999710
H    18.35000038  10.90999985  54.45000076
H    20.75000000  11.00000000  53.95999908
H    22.95000076  11.95000076  54.51000214
H    21.52000046  13.05999947  58.30999756
H    13.56999969  12.28999996  58.29000092
H    24.37000084  13.17000008  55.94999695
H    23.65999985  13.71999931  57.47000122
S    12.76999950  10.80000019  53.74000168
C    10.08999920  10.60999966  54.52000046
C    11.39000034  10.93000031  54.84000397
C    11.77000046  11.33999920  56.16000366
C    10.76000023  11.64000034  57.04999924
C     9.42000008  11.30000019  56.76000214
C     8.38999939  11.50000000  57.71999741
C     7.09000015  11.18999958  57.37999725
C     6.71999979  10.76000023  56.07999802
C     7.69000006  10.53999996  55.13000107
C     9.04999924  10.75000000  55.47999954
C    13.22000027  11.38000011  56.30000305
C    13.88000011  11.00999928  55.11000061
C    15.26999950  11.05999947  55.01999664
C     5.32999992  10.31000042  55.66999817
H     4.86665058  10.90878963  54.88586807
H     9.86999989  10.18000031  53.54999924
H    11.09000015  12.06999969  58.00000000
H     8.69999981  11.92999935  58.67000198
H     6.28999996  11.42000008  58.08000183
H     7.46000004  10.01999950  54.20000076
H    15.70000076  10.69000053  54.09999847
H     4.75000000  10.31999969  56.59999847
H     5.26000023   9.23999977  55.40999985
S    13.42000008   8.67000008  50.94999695
C    10.77000046   8.17000008  51.60999680
C    12.10000038   7.97999954  51.90999985
C    12.56999969   7.31999969  53.09999847
C    11.59000015   6.89000034  53.97999573
C    10.21000004   7.09000015  53.77999878
C     9.21000004   6.65000010  54.68999863
C     7.88000011   6.84999990  54.43999863
C     7.42000008   7.48000050  53.25000000
C     8.40999985   7.90000010  52.38999939
C     9.81000042   7.69000006  52.52999878
C    13.96999931   7.63999987  53.27999878
C    14.60999966   8.34999943  52.22999954
C    15.93000031   8.76000023  52.23999786
C     5.93999958   7.59999990  52.97000122
H     5.63973045   7.31402922  51.96195221
H    10.47999954   8.86999989  50.83000183
H    11.87000084   6.43000031  54.93000031
H     9.56999969   6.25999975  55.63999939
H     7.14999962   6.32000017  55.06000137
H     8.02999973   8.43999958  51.52000046
H    16.43000031   9.28999996  51.43000031
H     5.29999971   7.00000000  53.62999725
H     5.66999960   8.65999985  53.06000137
S    17.20999908   7.11999989  55.65999985
C    19.89999962   7.51999950  55.05000305
C    18.57999992   7.63000011  54.66999817
C    18.15000153   8.32999992  53.50000000
C    19.10000038   8.86999989  52.65999603
C    20.48000145   8.71999931  52.94000244
C    21.40999985   9.23999977  52.00000000
C    22.73999977   9.13000011  52.36000061
C    23.18000031   8.38999939  53.47999954
C    22.26000023   7.90000010  54.38000107
C    20.86000061   8.03999996  54.15000153
C    16.69999886   8.34999943  53.34000015
C    16.06999969   7.69000006  54.41999817
C    14.73000050   7.32999992  54.41999817
C    24.63999939   8.02999973  53.67000198
H    25.10963440   8.49251938  54.53811264
H    20.17000008   7.07999992  56.00999832
H    18.73999977   9.31999969  51.73999786
H    21.04000092   9.70000076  51.07999802
H    23.52000046   9.36999989  51.65000153
H    22.50000000   7.40000010  55.31999969
H    14.27000046   6.76000023  55.21999741
H    25.19000053   8.36000061  52.77000046
H    24.57999992   6.94000006  53.70999908
