96

S    16.73999977  11.84000015  59.05000305
C    19.51000023  12.02000046  58.44999695
C    18.22000122  11.69000053  58.08000183
C    17.92000008  11.35000038  56.72999954
C    18.92000008  11.28000069  55.77999878
C    20.26000023  11.54999924  56.12999725
C    21.32999802  11.52999973  55.18000031
C    22.63000107  11.64999962  55.59000015
C    22.95000076  11.87999916  56.95000076
C    21.91999817  12.02000046  57.85999680
C    20.55000114  11.82999992  57.50999832
C    16.47999954  11.23999977  56.52000046
C    15.69000053  11.64000034  57.63000107
C    14.29999924  11.69000053  57.56000137
C    24.38999939  12.11999989  57.30999756
H    24.80779076  11.39063644  58.00395584
H    19.85999870  12.43999958  59.38999939
H    18.63999939  11.03000069  54.75999832
H    21.11000061  11.26000023  54.15000153
H    23.42000008  11.57999992  54.84000397
H    22.06999969  12.61999989  58.75000000
H    13.69999981  12.18999958  58.31999969
H    24.96000099  12.15999985  56.38000107
H    24.51999855  13.12999916  57.71999741
S    13.38000107  10.53999996  53.92000198
C    10.60999966  10.39000034  54.50000000
C    11.90000057  10.65999985  54.89999771
C    12.20000076  10.98000050  56.26999664
C    11.17000008  11.21999931  57.15000153
C     9.82999992  11.02000046  56.73999786
C     8.73000050  11.28000069  57.61000061
C     7.42999983  11.09000015  57.22000122
C     7.17000008  10.67000008  55.89000320
C     8.18000031  10.44999981  54.98000336
C     9.52999973  10.62999916  55.38999939
C    13.63999939  11.17000008  56.45000076
C    14.42999935  10.81999969  55.31999969
C    15.80999947  10.95000076  55.33000183
C     5.73999977  10.26999950  55.63000107
H     5.27167082  10.93701458  54.90621948
H    10.32999992  10.07999992  53.50000000
H    11.42000008  11.49000072  58.18000031
H     8.89999962  11.65999985  58.61999893
H     6.61999989  11.21000099  57.93000031
H     8.00000000  10.06999969  53.97999573
H    16.39999962  10.85999966  54.41999817
H     5.09999990  10.22999954  56.52000046
H     5.75999975   9.23999977  55.25000000
S    16.90999985  12.38999939  52.55000305
C    19.54000092  12.48000050  51.88000107
C    18.29000092  12.05999947  51.49000168
C    17.89999962  11.72999954  50.14999771
C    18.92000008  11.51999950  49.25000000
C    20.28000069  11.69999981  49.61000061
C    21.35999870  11.67000008  48.68999863
C    22.63000107  12.02999973  49.05000305
C    22.93999863  12.46999931  50.37000275
C    21.90000153  12.55000019  51.26999664
C    20.55999947  12.22000027  50.91999817
C    16.45000076  11.56999969  50.11000061
C    15.76000023  12.10000038  51.23000336
C    14.37000084  12.23999977  51.25000000
C    24.37000084  12.75000000  50.77000046
H    24.76185608  12.32964611  51.69620132
H    19.85999870  12.86000061  52.84000015
H    18.67000008  11.39000034  48.20000076
H    21.17000198  11.30000019  47.68000031
H    23.47999954  11.84000015  48.40000153
H    22.04999924  12.77999973  52.31999969
H    13.76999950  12.43999958  52.12999725
H    24.77999878  12.15000057  49.94999695
H    24.60000038  13.81999969  50.68000031
S    13.30000019  11.26000023  47.50000000
C    10.57000065  11.10999966  48.13999939
C    11.85999966  11.38000011  48.53000259
C    12.28999996  11.78999996  49.82999802
C    11.26000023  11.97000027  50.73999786
C     9.92999935  11.59000015  50.45999908
C     8.90999985  11.59999943  51.45000076
C     7.60999966  11.31999969  51.10000229
C     7.23999977  10.90999985  49.79000092
C     8.22000027  10.80000019  48.82999802
C     9.55999947  11.17000008  49.13000107
C    13.71999931  11.98999977  50.04000092
C    14.37999916  11.51999950  48.88000107
C    15.75000000  11.26999950  48.94000244
C     5.82000017  10.47000027  49.51000214
H     5.32936382  10.92508221  48.64960861
H    10.21000004  10.95000076  47.12999725
H    11.51999950  12.39999962  51.70000076
H     9.18000031  11.92000008  52.44999695
H     6.84999990  11.28000069  51.88000107
H     7.97999954  10.60999966  47.78999710
H    16.29999924  11.06999969  48.02000046
H     5.21000004  10.67000008  50.40000153
H     5.89999962   9.39999962  49.29000092
