96

S    16.54999924  12.17000008  58.72000122
C    19.22999954  11.92000008  58.13999939
C    17.94000053  11.57999992  57.78999710
C    17.56999969  11.06999969  56.51000214
C    18.53999901  11.02000046  55.52999878
C    19.88999939  11.25000000  55.89000320
C    20.96999931  10.98000050  54.99000168
C    22.21999931  11.49000072  55.27000046
C    22.59000015  12.03999996  56.52000046
C    21.59000015  12.18999958  57.45999908
C    20.26000023  11.77000046  57.18000031
C    16.11999893  11.06999969  56.37000275
C    15.40999985  11.61000061  57.48000336
C    14.06000042  11.92000008  57.44999695
C    24.04000092  12.35999966  56.79000092
H    24.47418594  11.71227837  57.55160522
H    19.44000053  12.34000015  59.12000275
H    18.34000015  10.77000046  54.48999786
H    20.72999954  10.67999935  53.97999573
H    23.03999901  11.52999973  54.55999756
H    21.78999901  12.61999989  58.43000031
H    13.53000069  12.10999966  58.37999725
H    24.67000008  12.20999908  55.90999985
H    24.00000000  13.42000008  57.08000183
S    13.00000000  10.82999992  53.80000305
C    10.32999992  10.57000065  54.45999908
C    11.56000042  11.07999992  54.79000092
C    11.87999916  11.52999973  56.11999893
C    10.85000038  11.56999969  57.02999878
C     9.55000019  11.13999939  56.66999817
C     8.48999977  11.10999966  57.63000107
C     7.18999958  10.80000019  57.31999969
C     6.90000010  10.31999969  56.02000427
C     7.90999985  10.19999981  55.08999634
C     9.22999954  10.65000057  55.35999680
C    13.32999992  11.63000011  56.29000092
C    14.07999992  11.21000099  55.15999603
C    15.40999985  10.82999992  55.19000244
C     5.46000004  10.05000019  55.63999939
H     5.03447104  10.68120098  54.85986328
H    10.19999981  10.03000069  53.52000427
H    11.05000019  11.82000065  58.06999969
H     8.78999996  11.50000000  58.60000229
H     6.34999990  11.00999928  57.97999954
H     7.68000031   9.84000015  54.09000015
H    15.93000031  10.59000015  54.26000214
H     4.73000002  10.08999920  56.45999908
H     5.46999979   9.02000046  55.26000214
S    13.55000019   8.73999977  50.98999786
C    10.81999969   8.31999969  51.63000107
C    12.15999985   8.18000031  51.93999863
C    12.58999920   7.46999979  53.11000061
C    11.59000015   6.98999977  53.93000031
C    10.21999931   7.04999971  53.59000397
C     9.22000027   6.60000038  54.50000000
C     7.88999987   6.71999979  54.15999985
C     7.49000025   7.26000023  52.90999985
C     8.40999985   7.78999996  52.02999878
C     9.78999996   7.72000027  52.38999939
C    14.02999973   7.57999992  53.33000183
C    14.68000031   8.27000046  52.28000259
C    16.02000046   8.61999989  52.27000427
C     6.02999973   7.57999992  52.67000198
H     5.51815128   6.94729805  51.94488144
H    10.59999943   8.78000069  50.68000031
H    11.94000053   6.48000002  54.82999802
H     9.50000000   6.38000011  55.52000046
H     7.13000011   6.72999954  54.93000031
H     8.13000011   8.38999939  51.17000198
H    16.50000000   8.89000034  51.32999802
H     5.42999983   7.57999992  53.59000397
H     6.01000023   8.63000011  52.36000061
S    17.31999969   7.05999947  55.72000122
C    19.98999977   7.26999998  54.89999771
C    18.65999985   7.46000004  54.61999893
C    18.27000046   8.01999950  53.36000061
C    19.27999878   8.43000031  52.51999664
C    20.65999985   8.23000050  52.77000046
C    21.68999863   8.73000050  51.93000031
C    23.02000046   8.57999992  52.27000427
C    23.36999893   7.88000011  53.46000290
C    22.42000198   7.42999983  54.34999847
C    21.04999924   7.64999962  54.02999878
C    16.81999969   8.10000038  53.29999924
C    16.18999863   7.57999992  54.45999908
C    14.81999969   7.32999992  54.45999908
C    24.80999947   7.86999989  53.92000198
H    24.98846817   8.61956215  54.69097900
H    20.31999969   6.77999973  55.81999969
H    19.03000069   8.86999989  51.56000137
H    21.35999870   9.39999962  51.13999939
H    23.85000038   8.94999981  51.69000244
H    22.67999840   6.84999990  55.22999573
H    14.40999985   6.74000025  55.26000214
H    25.34000015   8.09000015  52.98999786
H    25.00999832   6.85999966  54.29000092
