96

S    16.59000015  12.15999985  58.67000198
C    19.31999969  11.92000008  58.13000107
C    18.02000046  11.61000061  57.77999878
C    17.67000008  11.18000031  56.45999908
C    18.64999962  10.92000008  55.52000046
C    19.96999931  11.31999969  55.84999847
C    20.94000053  11.36000061  54.80999756
C    22.22999954  11.77000046  55.04000092
C    22.56999969  12.35999966  56.29000092
C    21.64999962  12.35000038  57.30999756
C    20.32999992  11.82000065  57.14000320
C    16.21999931  11.21000099  56.26999664
C    15.48999977  11.79999924  57.32999802
C    14.11999893  11.98999977  57.25999832
C    23.97000122  12.81000042  56.65000153
H    24.26235962  12.42494011  57.62691116
H    19.51000023  12.36999989  59.09000015
H    18.29000092  10.55999947  54.55999756
H    20.61000061  11.18999958  53.79000092
H    22.88999939  11.69999981  54.16999817
H    21.80999947  12.56999969  58.36000061
H    13.55000019  12.25999928  58.15000153
H    24.65999985  12.35000038  55.93999863
H    23.88000107  13.89999962  56.72999954
S    13.01000023  10.32999992  53.82999802
C    10.29000092  10.31000042  54.65999985
C    11.61000061  10.62000084  54.88999939
C    11.97999954  11.26000023  56.11000061
C    11.02000046  11.56000042  57.06999969
C     9.64999962  11.28999901  56.79999924
C     8.56999969  11.54999924  57.69000244
C     7.26999998  11.23000050  57.36999893
C     6.96000004  10.40999985  56.25000000
C     7.97999954  10.03999901  55.40999985
C     9.26999950  10.59999943  55.59999847
C    13.40000057  11.56000042  56.13999939
C    14.11000061  11.00999928  55.04000092
C    15.48999977  10.84000015  55.13000107
C     5.56999969   9.85000038  56.04000092
H     5.15827227  10.36820889  55.17395020
H     9.96999931   9.78999996  53.75999832
H    11.33999920  11.94000053  58.02999878
H     8.75000000  11.92000008  58.68999863
H     6.46000004  11.54000092  58.02000046
H     7.81000042   9.40999985  54.54000092
H    16.07999992  10.57999992  54.26000214
H     4.92999983  10.01000023  56.90999985
H     5.63000011   8.76999950  55.84999847
S    13.86000061   8.23999977  50.90000153
C    11.17000008   7.65999985  51.63999939
C    12.51999950   7.63999987  51.88999939
C    12.97000027   7.17999983  53.16999817
C    12.05999947   6.88000011  54.16999817
C    10.67999935   6.80999994  53.89999771
C     9.72000027   6.32999992  54.84000397
C     8.36999989   6.21999979  54.56999969
C     7.94000053   6.84000015  53.36999893
C     8.80999947   7.32999992  52.42000198
C    10.21000004   7.26000023  52.61000061
C    14.40000057   7.36999989  53.34000015
C    14.96999931   8.14000034  52.28000259
C    16.27000046   8.63000011  52.32999802
C     6.48000002   7.17000008  53.13000107
H     6.02256489   6.67682791  52.27230835
H    10.70000076   8.14999962  50.77999878
H    12.48000050   6.38999987  55.04000092
H    10.07999992   5.86000013  55.73999786
H     7.69999981   5.78999996  55.30000305
H     8.51000023   7.81000042  51.49000168
H    16.73999977   8.90999985  51.38999939
H     6.00000000   7.03000021  54.10999680
H     6.50000000   8.23999977  52.88000107
S    17.67000008   6.96000004  55.68000031
C    20.32999992   7.50000000  54.94999695
C    18.97999954   7.64999962  54.69999695
C    18.52000046   8.27999973  53.50000000
C    19.40999985   8.84000015  52.60000229
C    20.81000137   8.71000004  52.78999710
C    21.76000214   9.21000004  51.84999847
C    23.09000015   9.22000027  52.18999863
C    23.54000092   8.40999985  53.26000214
C    22.63000107   7.86000013  54.13000107
C    21.21999931   8.00000000  53.96999741
C    17.06999969   8.34999943  53.43999863
C    16.50000000   7.57000017  54.47999954
C    15.18000031   7.13999987  54.47999954
C    24.99000168   8.01999950  53.48999786
H    25.26106644   8.41946602  54.46726608
H    20.72000122   6.91999960  55.77000046
H    19.19000053   9.44000053  51.72999954
H    21.34000015   9.39999962  50.86999893
H    23.84000015   9.63999939  51.52000046
H    23.03999901   7.25000000  54.93000031
H    14.75999928   6.57999992  55.31000137
H    25.53999901   8.34999943  52.61000061
H    25.10999870   6.93000031  53.40999985
