96

S    16.54999924  12.22000027  58.69999695
C    19.22999954  12.30000019  58.02999878
C    17.94999886  11.96000004  57.63999939
C    17.59000015  11.59999943  56.30000305
C    18.64999962  11.31999969  55.45999908
C    20.00000000  11.61000061  55.79000092
C    21.07999992  11.42000008  54.88999939
C    22.37999916  11.54000092  55.31999969
C    22.69000053  12.13000107  56.56999969
C    21.63999939  12.44999981  57.39999771
C    20.28000069  12.10999966  57.11000061
C    16.14999962  11.44000053  56.19999695
C    15.44999981  11.85999966  57.36000061
C    14.06000042  11.85999966  57.36999893
C    24.05999947  12.65999985  56.93000031
H    24.53492165  12.02913284  57.68136978
H    19.44000053  12.86999893  58.94000244
H    18.46999931  10.75000000  54.54999924
H    20.84000015  10.95000076  53.94000244
H    23.22000122  11.33999920  54.65999985
H    21.87999916  12.92000008  58.34999847
H    13.50999928  12.11999989  58.27999878
H    24.72999954  12.61000061  56.06999969
H    23.92999840  13.71999931  57.16999817
S    12.97999954  10.40999985  53.80000305
C    10.22999954  10.65000057  54.31000137
C    11.52999973  10.90000057  54.68999863
C    11.87000084  11.42000008  55.97999954
C    10.88999939  11.76000023  56.88999939
C     9.53999996  11.56000042  56.50000000
C     8.52999973  11.61999893  57.49000168
C     7.22000027  11.23999977  57.25999832
C     6.86999989  10.76000023  55.97999954
C     7.85000038  10.71000004  55.00999832
C     9.21000004  11.07999992  55.18000031
C    13.30000019  11.50000000  56.25000000
C    14.01000023  10.97000027  55.13999939
C    15.39999962  10.90000057  55.14999771
C     5.42000008  10.51000023  55.65000153
H     4.98479271  11.19491577  54.92227554
H    10.01000023  10.14000034  53.36999893
H    11.13000011  11.98999977  57.93000031
H     8.80000019  11.94000053  58.50000000
H     6.46000004  11.56999969  57.95999908
H     7.49000025  10.36000061  54.03999710
H    15.88999939  10.31000042  54.38000107
H     4.79999971  10.43000031  56.56000137
H     5.46999979   9.48000050  55.27999878
S    13.52000046   8.76000023  50.79000092
C    10.93000031   8.11999989  51.40999603
C    12.25999928   7.86000013  51.65000153
C    12.68000031   7.14999962  52.83000183
C    11.76000023   6.84000015  53.81000137
C    10.39000034   7.09000015  53.56999969
C     9.30000019   6.65000010  54.38000107
C     7.97999954   6.91999960  54.10999680
C     7.63999987   7.81000042  53.04999924
C     8.63000011   8.26000023  52.21000290
C     9.96000004   7.78999996  52.38999939
C    14.11999893   7.36000013  52.97000122
C    14.68999958   8.23999977  52.01000214
C    15.98999977   8.71999931  52.09000015
C     6.17999983   8.09000015  52.76000214
H     5.84476948   7.65491390  51.81850433
H    10.62999916   8.78999996  50.61000061
H    12.02000046   6.17999983  54.62999725
H     9.52999973   6.11999989  55.30000305
H     7.23000002   6.48000002  54.75999832
H     8.36999989   8.80000019  51.30000305
H    16.36000061   9.26000023  51.22000122
H     5.61999989   7.55999994  53.54000092
H     5.82999992   9.11999989  52.91999817
S    17.31999969   6.94000006  55.43000031
C    19.95000076   7.57999992  54.93000031
C    18.63000107   7.78999996  54.59000015
C    18.18000031   8.39999962  53.37999725
C    19.13999939   8.78000069  52.45999908
C    20.51000214   8.67000008  52.81000137
C    21.42999840   9.10000038  51.81000137
C    22.78000069   9.06000042  52.06999969
C    23.22000122   8.51000023  53.30999756
C    22.34999847   8.01000023  54.26000214
C    20.94000053   8.06999969  54.03999710
C    16.75000000   8.25000000  53.15999985
C    16.17000008   7.44999981  54.18000031
C    14.85999966   6.98999977  54.09000015
C    24.69000053   8.22000027  53.47999954
H    25.06737328   8.56889153  54.44123077
H    20.31999969   7.03000021  55.79000092
H    18.86000061   9.15000057  51.47999573
H    20.96999931   9.39000034  50.87999725
H    23.51000023   9.55000019  51.44000244
H    22.65999985   7.49000025  55.15999603
H    14.42000008   6.21000004  54.71000290
H    25.27000046   8.61999989  52.63000107
H    24.71999931   7.13000011  53.34000015
