96

S    16.46999931  11.92999935  58.82999802
C    19.22000122  11.96000004  58.15000153
C    17.92000008  11.65999985  57.83000183
C    17.61999893  11.21999931  56.50000000
C    18.60000038  10.98000050  55.54999924
C    19.93000031  11.35000038  55.86000061
C    20.92000008  11.21999931  54.84000397
C    22.20999908  11.36999989  55.27999878
C    22.60999870  11.78999996  56.56999969
C    21.61999893  12.00000000  57.50999832
C    20.23999977  11.84000015  57.18000031
C    16.18999863  11.25000000  56.25000000
C    15.44999981  11.56000042  57.43000031
C    14.06000042  11.59000015  57.41000366
C    24.04999924  12.09000015  56.90000153
H    24.42638588  11.42954922  57.68117905
H    19.56999969  12.03999996  59.18000031
H    18.40999985  10.54999924  54.56999969
H    20.69000053  10.97000027  53.81000137
H    23.01000214  11.47999954  54.54999924
H    21.78999901  12.35000038  58.52000427
H    13.43999958  11.69999981  58.29999924
H    24.77000046  12.00000000  56.07999802
H    24.15999985  13.15000057  57.15999985
S    13.03999996  10.32999992  53.81000137
C    10.32999992  10.27999973  54.45999908
C    11.61999893  10.57000065  54.84000397
C    11.97000027  11.05999947  56.13999939
C    10.95000076  11.26999950  57.04999924
C     9.59999943  10.97000027  56.77000046
C     8.60000038  10.90999985  57.78999710
C     7.36999989  10.39000034  57.47000122
C     7.07000017   9.96000004  56.14999771
C     8.03999996   9.96000004  55.18000031
C     9.35999966  10.36000061  55.48999786
C    13.40999985  11.21000099  56.24000168
C    14.15999985  10.81999969  55.10000229
C    15.54999924  10.88000107  55.06000137
C     5.71000004   9.38000011  55.81999969
H     5.29639912   9.86491203  54.93575287
H     9.98999977   9.88000011  53.50000000
H    11.16000080  11.49000072  58.09999847
H     8.78000069  11.18000031  58.81999969
H     6.71999979  10.36999893  58.34000015
H     7.83999968   9.47000027  54.22000122
H    16.03999901  10.62000084  54.13000107
H     5.05000019   9.52999973  56.68000031
H     5.64000034   8.27999973  55.76000214
S    13.21000004   8.43000031  51.00999832
C    10.57000065   7.75000000  51.68000031
C    11.90999985   7.73000002  51.98999786
C    12.43999958   6.98000002  53.09000015
C    11.50000000   6.50000000  53.97999573
C    10.11000061   6.70000029  53.79000092
C     9.21000004   6.01999998  54.66999817
C     7.86999989   5.97000027  54.36000061
C     7.34000015   6.51000023  53.15999985
C     8.21000004   7.11000013  52.27000427
C     9.57999992   7.28999996  52.58999634
C    13.88000011   7.16000032  53.25000000
C    14.40999985   7.99000025  52.22999954
C    15.72999954   8.43999958  52.30999756
C     5.86000013   6.34999990  52.88999939
H     5.56210470   6.72591591  51.91120148
H    10.34999943   8.14999962  50.68999863
H    11.87999916   5.97000027  54.85000229
H     9.63000011   5.51999998  55.52999878
H     7.20000029   5.42000008  55.01999664
H     7.76000023   7.55999994  51.38999939
H    16.07999992   9.07999992  51.51000214
H     5.51000023   5.32999992  53.06999969
H     5.36000013   7.00000000  53.61999893
S    17.29999924   6.69000053  55.52999878
C    19.96000099   7.25000000  54.80999756
C    18.60999870   7.39000034  54.55999756
C    18.07999992   8.01999950  53.39000320
C    19.03000069   8.55000019  52.52999878
C    20.42000008   8.47999954  52.74000168
C    21.35000038   9.06999969  51.83000183
C    22.69000053   8.82000065  51.98999786
C    23.19999886   8.17000008  53.15000153
C    22.30999947   7.78999996  54.13999939
C    20.90999985   7.81000042  53.92000198
C    16.62999916   8.00000000  53.29000092
C    16.10000038   7.17999983  54.31999969
C    14.75999928   6.80000019  54.27000046
C    24.60000038   8.53999996  53.56999969
H    25.01281357   7.97059917  54.40274811
H    20.20999908   6.58999968  55.63999939
H    18.72999954   8.97000027  51.58000183
H    20.93000031   9.65999985  51.02000427
H    23.31999969   9.56999969  51.53999710
H    22.57999802   7.69000006  55.18000031
H    14.48999977   6.28000021  55.19000244
H    24.59000015   9.59000015  53.89999771
H    25.26000023   8.47999954  52.69000244
