96

S    16.57999992  12.03999996  58.82999802
C    19.37000084  12.05999947  58.27000046
C    18.07999992  11.73999977  57.91999817
C    17.75000000  11.26999950  56.59999847
C    18.71999931  11.18999958  55.61999893
C    20.06999969  11.46000004  55.96000290
C    21.18000031  11.21999931  55.10000229
C    22.47999954  11.36000061  55.52999878
C    22.79000092  11.72000027  56.86999893
C    21.73999977  11.87000084  57.75000000
C    20.38999939  11.84000015  57.30999756
C    16.32999992  11.05999947  56.38999939
C    15.57000065  11.65999985  57.42000198
C    14.19999981  11.87999916  57.29000092
C    24.18999863  12.10999966  57.29999924
H    24.64679718  11.38911724  57.97805786
H    19.59000015  12.65999985  59.15000153
H    18.53000069  10.76000023  54.64000320
H    20.96999931  10.78999996  54.13000107
H    23.28000069  11.25000000  54.80999756
H    21.97999954  12.15999985  58.76999664
H    13.50999928  12.25999928  58.02999878
H    24.82999992  12.30999947  56.43000031
H    24.23000145  13.07000065  57.83000183
S    13.12999916   9.98999977  54.00000000
C    10.40999985  10.06000042  54.61000061
C    11.67000008  10.54999924  54.84000397
C    12.06999969  11.23000050  56.04000092
C    11.10000038  11.42000008  57.00000000
C     9.76000023  10.98999977  56.81000137
C     8.73000050  11.11999989  57.78999710
C     7.44999981  10.71000004  57.52999878
C     7.09999990  10.15999985  56.26999664
C     8.06999969   9.96000004  55.31000137
C     9.42000008  10.29000092  55.59999847
C    13.52000046  11.33999920  56.19999695
C    14.26000023  10.72999954  55.14999771
C    15.64000034  10.65000057  55.24000168
C     5.64000034   9.85000038  56.02000427
H     5.21316051  10.37643528  55.16632080
H    10.06999969   9.50000000  53.74000168
H    11.25000000  11.64999962  58.04999924
H     8.90999985  11.52999973  58.77999878
H     6.75000000  10.81999969  58.34999847
H     7.96000004   9.48000050  54.34000015
H    16.26000023  10.36999893  54.38999939
H     5.09000015  10.01000023  56.95000076
H     5.65999985   8.78000069  55.73999786
S    17.28000069  12.39999962  52.88000107
C    19.93999863  12.55000019  52.21000290
C    18.68999863  12.09000015  51.84000015
C    18.38000107  11.56000042  50.54999924
C    19.38999939  11.46000004  49.61000061
C    20.69000053  11.84999943  50.00000000
C    21.77999878  11.78999996  49.08000183
C    23.06999969  12.09000015  49.43999863
C    23.38000107  12.68000031  50.70000076
C    22.32000160  12.86000061  51.55000305
C    21.02000046  12.34000015  51.31000137
C    16.94000053  11.57999992  50.35999680
C    16.21999931  12.01000023  51.51000214
C    14.84000015  12.17000008  51.45000076
C    24.77999878  13.10999966  51.06999969
H    25.18551636  12.41991138  51.80988693
H    20.15000153  12.96000004  53.18999863
H    19.18000031  11.28000069  48.55999756
H    21.47000122  11.51999950  48.06999969
H    23.81000137  11.97999954  48.66000366
H    22.50999832  13.30000019  52.52999878
H    14.27999973  12.50000000  52.30999756
H    25.43999863  12.96000004  50.20999908
H    24.90999985  14.11999893  51.50000000
S    13.82999992  10.82999992  47.84000015
C    11.05000019  10.82999992  48.40999985
C    12.35000038  11.11999989  48.76999664
C    12.68000031  11.54999924  50.10000229
C    11.61000061  11.63000011  50.97000122
C    10.26999950  11.28999901  50.65999985
C     9.25000000  11.31000042  51.65000153
C     7.95000029  11.10000038  51.25000000
C     7.68000031  10.72999954  49.91000366
C     8.61999989  10.67999935  48.89999771
C     9.96000004  10.90999985  49.31000137
C    14.09999943  11.76000023  50.34000015
C    14.85000038  11.31999969  49.20999908
C    16.22999954  11.18999958  49.22000122
C     6.25999975  10.32999992  49.59999847
H     5.75521612  10.98408604  48.88903809
H    10.85999966  10.50000000  47.38999939
H    11.77000046  11.84000015  52.02999878
H     9.53999996  11.69000053  52.63000107
H     7.16000032  11.10999966  52.00000000
H     8.21000004  10.62000084  47.88999939
H    16.84000015  10.77000046  48.41999817
H     5.68000031  10.31000042  50.52999878
H     6.28999996   9.30000019  49.23999786
