96

S    16.54999924  11.82999992  59.03999710
C    19.29999924  11.75000000  58.61000061
C    18.04000092  11.52999973  58.11999893
C    17.77000046  11.07999992  56.77999878
C    18.86000061  10.90000057  55.94999695
C    20.17000008  11.19999981  56.38000107
C    21.22999954  11.18999958  55.43000031
C    22.50000000  11.51000023  55.86999893
C    22.78000069  11.89000034  57.21000290
C    21.75000000  11.85999966  58.13000107
C    20.40999985  11.57999992  57.75000000
C    16.34000015  11.13000011  56.49000168
C    15.54999924  11.51000023  57.61000061
C    14.15999985  11.57999992  57.63999939
C    24.18999863  12.28999996  57.56999969
H    24.68060493  11.87760735  58.45166779
H    19.47000122  11.89000034  59.68000031
H    18.65999985  10.53999996  54.93999863
H    21.09999847  10.77000046  54.43999863
H    23.28000069  11.39000034  55.13000107
H    21.96000099  12.18999958  59.15000153
H    13.67000008  11.72000027  58.59000397
H    24.70999908  12.07999992  56.63000107
H    24.13999939  13.38000107  57.55000305
S    13.20000076  10.36999893  53.99000168
C    10.44999981  10.27999973  54.58000183
C    11.72999954  10.60999966  54.97000122
C    12.03999996  11.09000015  56.27999878
C    11.03000069  11.19999981  57.22000122
C     9.68999958  10.90999985  56.86000061
C     8.64999962  11.00000000  57.83000183
C     7.34000015  10.81999969  57.45999908
C     7.03999996  10.36999893  56.14999771
C     8.02999973  10.31000042  55.19000244
C     9.39999962  10.52999973  55.50000000
C    13.48000050  11.23999977  56.45999908
C    14.25000000  10.80000019  55.35999680
C    15.64000034  10.71000004  55.35999680
C     5.71000004   9.71000004  55.86000061
H     5.12082863  10.29917145  55.15725327
H    10.24000072   9.80000019  53.62999725
H    11.18999958  11.42000008  58.27000046
H     9.02000046  11.14999962  58.83999634
H     6.53999996  10.85999966  58.18999863
H     7.82999992   9.72000027  54.29999924
H    16.18999863  10.22999954  54.55999756
H     5.15999985   9.59000015  56.79999924
H     5.84000015   8.67999935  55.52000046
S    17.20999908  12.51999950  52.78999710
C    19.90999985  12.69000053  52.18000031
C    18.64999962  12.30000019  51.77999878
C    18.31999969  11.77000046  50.48999786
C    19.40999985  11.51999950  49.68000031
C    20.75000000  11.82999992  50.00999832
C    21.84999847  11.56999969  49.13999939
C    23.15000153  11.82999992  49.48999786
C    23.36999893  12.38999939  50.77999878
C    22.34999847  12.64000034  51.65999985
C    20.98999977  12.39999962  51.31000137
C    16.87999916  11.73999977  50.28999710
C    16.13999939  12.01000023  51.45999908
C    14.75000000  12.06999969  51.55000305
C    24.73999977  12.81999969  51.25000000
H    25.12309647  12.01833439  51.88140106
H    20.06000137  13.03999996  53.20000076
H    19.34999847  10.95999908  48.75000000
H    21.64999962  11.13000011  48.16999817
H    23.98999977  11.87000084  48.80000305
H    22.55000114  13.15999985  52.58999634
H    14.29999924  12.17000008  52.52999878
H    25.43999863  13.05999947  50.44000244
H    24.71999931  13.80000019  51.73999786
S    13.63999939  11.06999969  47.90000153
C    10.93000031  11.00999928  48.50999832
C    12.22000027  11.19999981  48.95000076
C    12.56999969  11.69000053  50.25000000
C    11.56999969  11.87999916  51.18999863
C    10.21999931  11.76000023  50.76000214
C     9.11999989  11.85999966  51.65999985
C     7.82000017  11.64000034  51.27999878
C     7.50000000  11.21999931  49.95999908
C     8.53999996  11.00999928  49.09000015
C     9.89000034  11.30000019  49.43999863
C    14.01000023  11.79999924  50.38999939
C    14.73999977  11.54999924  49.20000076
C    16.13000107  11.47999954  49.13999939
C     6.15000010  10.59999943  49.66999817
H     5.60363865  11.09669209  48.86819839
H    10.75000000  10.62000084  47.50999832
H    11.68000031  12.06999969  52.25000000
H     9.38000011  11.97999954  52.70999908
H     7.13999987  11.47999954  52.11000061
H     8.39999962  10.67999935  48.06999969
H    16.60000038  11.28999901  48.16999817
H     5.56999969  10.67000008  50.59999847
H     6.38999987   9.53999996  49.51000214
