96

S    17.10000038  12.10999966  58.74000168
C    19.79999924  12.30999947  57.95999908
C    18.48999977  12.02999973  57.64999771
C    18.17000008  11.57999992  56.32999802
C    19.17000008  11.23999977  55.44000244
C    20.52000046  11.51000023  55.75000000
C    21.63000107  11.30000019  54.87999725
C    22.95000076  11.42000008  55.25000000
C    23.25000000  11.95000076  56.52999878
C    22.20999908  12.20999908  57.39999771
C    20.84000015  12.06999969  57.02999878
C    16.72000122  11.52999973  56.18999863
C    16.00000000  11.78999996  57.38999939
C    14.60999966  11.75000000  57.49000168
C    24.65999985  12.28999996  56.95000076
H    24.92334747  11.77754021  57.87527466
H    20.07999802  12.65999985  58.95999908
H    18.93000031  10.88000107  54.43999863
H    21.35000038  10.95999908  53.88999939
H    23.74000168  11.14999962  54.54999924
H    22.47999954  12.58999920  58.37999725
H    14.07999992  11.89000034  58.43000031
H    25.43000031  12.10999966  56.18999863
H    24.53000069  13.36999989  57.11999893
S    13.48999977  10.95999908  53.75000000
C    10.77999973  10.82999992  54.43999863
C    12.09000015  11.02000046  54.84000397
C    12.41000080  11.44000053  56.17000198
C    11.46999931  11.61999893  57.15999985
C    10.13000011  11.39000034  56.77000046
C     9.07999992  11.69999981  57.69000244
C     7.76000023  11.51999950  57.36999893
C     7.44000006  11.03999996  56.06999969
C     8.40999985  10.85999966  55.10000229
C     9.77999973  11.03000069  55.41999817
C    13.85000038  11.64000034  56.31999969
C    14.53999996  11.30000019  55.13999939
C    15.93000031  11.36000061  55.05000305
C     6.01999998  10.60999966  55.79000092
H     5.59969139  11.17278576  54.95650482
H    10.55999947  10.57999992  53.40000153
H    11.77000046  11.97999954  58.13999939
H     9.35999966  12.20999908  58.61000061
H     6.97000027  11.80999947  58.04999924
H     8.27000046  10.46000004  54.09999847
H    16.34000015  11.14999962  54.06999969
H     5.40999985  10.72000027  56.69000244
H     6.01000023   9.52999973  55.61000061
S    13.71000099   8.75000000  51.07999802
C    11.03999996   8.15999985  51.63999939
C    12.35999966   8.06999969  52.02000046
C    12.79000092   7.42999983  53.22999954
C    11.82999992   6.81999969  54.01000214
C    10.44999981   6.94000006  53.69999695
C     9.39999962   6.44999981  54.52999878
C     8.09000015   6.80999994  54.33000183
C     7.69999981   7.46999979  53.13000107
C     8.67999935   7.92999983  52.28000259
C    10.05000019   7.63999987  52.50999832
C    14.23999977   7.48000050  53.36999893
C    14.82999992   8.30999947  52.37999725
C    16.14999962   8.73000050  52.37999725
C     6.28000021   7.88999987  52.84999847
H     5.86827135   7.37179041  51.98395157
H    10.90999985   8.71999931  50.72000122
H    12.10999966   6.21999979  54.86999893
H     9.67000008   6.02999973  55.48999786
H     7.50999975   6.63000011  55.22999573
H     8.34000015   8.60999966  51.50000000
H    16.60000038   9.31999969  51.58000183
H     5.69000006   7.72000027  53.75999832
H     6.25999975   8.96000004  52.62000275
S    17.51000023   6.86999989  55.65000153
C    20.15999985   7.53000021  55.00000000
C    18.81999969   7.63000011  54.72000122
C    18.45000076   8.26000023  53.47999954
C    19.36000061   8.78999996  52.57999802
C    20.73999786   8.69000053  52.90000153
C    21.77000046   9.02000046  51.97999954
C    23.08000183   8.80999947  52.31999969
C    23.46999931   8.34999943  53.61000061
C    22.50999832   7.76999998  54.40000153
C    21.14000130   8.01000023  54.09999847
C    17.00000000   8.21000004  53.36000061
C    16.40999985   7.40999985  54.36999893
C    15.08999920   6.96000004  54.34999847
C    24.93999863   8.10000038  53.83999634
H    25.11689568   8.10707569  54.91552353
H    20.62999916   6.90999985  55.76000214
H    19.00000000   9.25000000  51.66999817
H    21.37000084   9.55000019  51.11000061
H    23.80000114   9.30000019  51.65999985
H    22.77000046   7.16000032  55.27000046
H    14.73999977   6.28999996  55.13000107
H    25.45999908   8.97000027  53.41999817
H    25.19000053   7.11000013  53.43000031
