96

S    16.67000008  12.28999996  58.53000259
C    19.47000122  12.20000076  58.13999939
C    18.19000053  11.92999935  57.70000076
C    17.94000053  11.40999985  56.38999939
C    18.97999954  10.97000027  55.59000015
C    20.29999924  11.19999981  56.04999924
C    21.42000008  10.95999908  55.20999908
C    22.72000122  11.21999931  55.56999969
C    22.95000076  11.76000023  56.86000061
C    21.90000153  12.13999939  57.65999603
C    20.55000114  11.89000034  57.28000259
C    16.52000046  11.31000042  56.07999802
C    15.71000004  11.90000057  57.09000015
C    14.32999992  11.97999954  57.15000153
C    24.33000183  12.22000027  57.28000259
H    24.88315201  11.48246288  57.86151886
H    19.67000008  12.84000015  59.00000000
H    18.81999969  10.62000084  54.58000183
H    21.14999962  10.40999985  54.31000137
H    23.59999847  10.95999908  54.99000168
H    22.04999924  12.50000000  58.68000031
H    13.78000069  12.44999981  57.95999908
H    24.89000130  12.35999966  56.35000229
H    24.28999901  13.15000057  57.84999847
S    13.35000038  10.51000023  53.64999771
C    10.54999924  10.46000004  54.20999908
C    11.84999943  10.75000000  54.55999756
C    12.18999958  11.23000050  55.86000061
C    11.17000008  11.67000008  56.69000244
C     9.82999992  11.28999901  56.43000031
C     8.82999992  11.56999969  57.39999771
C     7.51999950  11.25000000  57.15999985
C     7.21000004  10.69000053  55.89000320
C     8.15999985  10.34999943  54.94999695
C     9.52000046  10.67999935  55.15999603
C    13.60999966  11.33999920  56.11999893
C    14.40000057  10.90999985  55.02999878
C    15.78999996  10.82999992  54.98000336
C     5.78999996  10.32999992  55.52000046
H     5.39117336  10.95672798  54.72234726
H    10.26999950   9.94999981  53.29000092
H    11.36999989  12.18999958  57.62000275
H     9.11000061  12.10999966  58.30999756
H     6.77999973  11.43000031  57.94000244
H     7.82999992   9.84000015  54.03999710
H    16.27000046  10.27999973  54.16999817
H     5.15999985  10.47000027  56.40999603
H     5.75000000   9.26999950  55.24000168
S    17.17000008  12.64999962  52.61000061
C    19.89999962  12.65999985  52.05999756
C    18.61999893  12.36999989  51.62000275
C    18.30999947  11.85999966  50.31999969
C    19.40000153  11.61999893  49.50000000
C    20.72000122  11.94000053  49.88999939
C    21.80000114  11.95000076  48.95999908
C    23.05999947  12.28999996  49.38000107
C    23.35000038  12.43999958  50.77000046
C    22.34000015  12.56999969  51.70000076
C    21.01000023  12.36999989  51.23000336
C    16.87000084  11.77000046  50.15999603
C    16.10999870  12.30000019  51.23000336
C    14.72000027  12.35000038  51.26999664
C    24.77000046  12.76000023  51.18000031
H    25.21778297  12.12031078  51.94051743
H    20.06999969  13.31999969  52.90999985
H    19.27000046  11.21000099  48.50999832
H    21.63999939  11.67000008  47.91999817
H    23.81999969  12.61000061  48.68000031
H    22.44999886  12.98999977  52.69000244
H    14.14999962  12.64000034  52.15000153
H    25.35000038  12.65999985  50.25000000
H    24.86000061  13.81000042  51.45999908
S    13.73999977  10.71000004  47.76000214
C    11.00999928  10.69000053  48.43000031
C    12.30000019  11.00999928  48.75999832
C    12.60000038  11.63000011  50.01999664
C    11.54000092  11.98999977  50.83000183
C    10.19999981  11.64999962  50.52000046
C     9.09000015  11.90000057  51.38000107
C     7.81000042  11.56000042  51.00000000
C     7.49000025  11.02000046  49.72999954
C     8.56999969  10.73999977  48.92000198
C     9.92000008  10.88000107  49.33000183
C    14.04000092  11.82999992  50.15999603
C    14.77000046  11.21000099  49.12000275
C    16.15999985  11.21000099  49.09000015
C     6.11000013  10.50000000  49.40999985
H     5.52656412  11.15458679  48.76252747
H    10.86999989  10.51000023  47.36999893
H    11.73999977  12.38999939  51.81000137
H     9.27999973  12.27000046  52.37999725
H     7.07999992  11.72999954  51.79000092
H     8.34999943  10.18000031  48.02000046
H    16.72000122  10.80000019  48.25000000
H     5.58000040  10.29000092  50.34000015
H     6.28000021   9.48000050  49.02000046
