96

S    16.54999924  12.25000000  58.86000061
C    19.29000092  12.39999962  58.15000153
C    18.00000000  12.03999996  57.85999680
C    17.69000053  11.59000015  56.53999710
C    18.71999931  11.43000031  55.61999893
C    20.05000114  11.82999992  55.86000061
C    21.09999847  11.61999893  54.92000198
C    22.39999962  11.87000084  55.31000137
C    22.72999954  12.35999966  56.59999847
C    21.68000031  12.65999985  57.43999863
C    20.32999992  12.30000019  57.18999863
C    16.25000000  11.46999931  56.36000061
C    15.50000000  11.94000053  57.45999908
C    14.14000034  12.20000076  57.50000000
C    24.13000107  12.82999992  56.90999985
H    24.61404037  12.24630356  57.69300842
H    19.50000000  12.72999954  59.15999985
H    18.53000069  10.80999947  54.75000000
H    20.95000076  11.35000038  53.88000107
H    23.15999985  11.56999969  54.59999847
H    21.98999786  13.03999996  58.40999985
H    13.68000031  12.51000023  58.43000031
H    24.75000000  12.76000023  56.00999832
H    24.04999924  13.89000034  57.19999695
S    13.12000084  10.82999992  53.87000275
C    10.38000011  10.78999996  54.52000046
C    11.69000053  11.00000000  54.91000366
C    11.98999977  11.47999954  56.22000122
C    10.93000031  11.77000046  57.05999756
C     9.57999992  11.49000072  56.72999954
C     8.43999958  11.76000023  57.52999878
C     7.13999987  11.61000061  57.09999847
C     6.93000031  11.05999947  55.80999756
C     7.96999979  10.69000053  54.98000336
C     9.30000019  11.02000046  55.40000153
C    13.42000008  11.68000031  56.40999603
C    14.14000034  11.26999950  55.26000214
C    15.52000046  11.13999939  55.20999908
C     5.53999996  10.62999916  55.41999817
H     4.97256899  11.36766052  54.85256577
H    10.21999931  10.24000072  53.59000397
H    11.05000019  12.20999908  58.04999924
H     8.67000008  12.18999958  58.50000000
H     6.32999992  11.94000053  57.74000168
H     7.79999971  10.18000031  54.03999710
H    15.95000076  10.84000015  54.26000214
H     4.97000027  10.36999893  56.32999802
H     5.73000002   9.72999954  54.82999802
S    13.45000076   8.85999966  50.90000153
C    10.75000000   8.45000076  51.49000168
C    12.06999969   8.25000000  51.83000183
C    12.48000050   7.49000025  52.97000122
C    11.49000072   7.04999971  53.81999969
C    10.13000011   7.21000004  53.46000290
C     9.13999939   6.63000011  54.31000137
C     7.82000017   6.77999973  53.95000076
C     7.40999985   7.63999987  52.90000153
C     8.32999992   8.19000053  52.04999924
C     9.71000004   7.88000011  52.25999832
C    13.93000031   7.53000021  53.13999939
C    14.59000015   8.28999996  52.14000320
C    15.93999958   8.60999966  52.11000061
C     5.91000032   7.83999968  52.78999710
H     5.46939945   7.33544111  51.93011856
H    10.52000046   9.15000057  50.68999863
H    11.69999981   6.61999989  54.79999924
H     9.43000031   5.91000032  55.07999802
H     7.11000013   6.06999969  54.34999847
H     8.10999966   8.82999992  51.19999695
H    16.38000107   9.11999989  51.25999832
H     5.36999989   7.48000050  53.67000198
H     5.64000034   8.89000034  52.63000107
S    17.18000031   7.17000008  55.61999893
C    19.88999939   7.68000031  54.92000198
C    18.53999901   7.77999973  54.65999985
C    18.11000061   8.46000004  53.47000122
C    19.03000069   9.02999973  52.61000061
C    20.42000008   8.92000008  52.87000275
C    21.44000053   9.28999996  51.95000076
C    22.79000092   9.19999981  52.22999954
C    23.15000153   8.71000004  53.50999832
C    22.23999977   8.23999977  54.43000031
C    20.86000061   8.27000046  54.06999969
C    16.69000053   8.23000050  53.22999954
C    16.03999901   7.63999987  54.34000015
C    14.72000027   7.20000029  54.23999786
C    24.61000061   8.43999958  53.80000305
H    24.90106964   8.70977116  54.81518936
H    20.15999985   7.27999973  55.90000153
H    18.68999863   9.44999981  51.66999817
H    21.14999962   9.52999973  50.93000031
H    23.47999954   9.51000023  51.45999908
H    22.57999802   7.72000027  55.31999969
H    14.29999924   6.71000004  55.11000061
H    25.30999947   8.98999977  53.15000153
H    24.82000160   7.36999989  53.72000122
