96

S    16.87000084  12.05999947  58.77999878
C    19.54000092  12.27000046  58.16999817
C    18.30999947  11.79999924  57.77999878
C    18.01000023  11.23999977  56.49000168
C    19.05999947  10.98999977  55.63000107
C    20.38000107  11.33999920  56.03000259
C    21.53000069  11.07999992  55.24000168
C    22.79000092  11.26999950  55.76000214
C    23.02000046  11.95000076  56.97999954
C    21.93000031  12.25999928  57.77000046
C    20.62000084  11.97000027  57.29999924
C    16.57999992  11.23000050  56.19999695
C    15.88999939  11.51000023  57.41000366
C    14.51000023  11.56000042  57.43999863
C    24.44000053  12.28000069  57.38999939
H    24.71752930  11.77475452  58.31509781
H    19.67000008  12.79999924  59.10999680
H    18.84000015  10.72000027  54.59999847
H    21.40000153  10.62000084  54.26000214
H    23.65999985  11.06999969  55.13999939
H    22.13000107  12.68000031  58.75000000
H    13.94999981  11.69999981  58.36000061
H    25.12000084  11.94000053  56.59000015
H    24.53000069  13.36999989  57.41000366
S    13.35999966  10.43000031  53.79000092
C    10.67999935  10.36999893  54.65000153
C    12.01000023  10.57999992  54.93999863
C    12.36999989  11.10000038  56.22000122
C    11.39999962  11.25000000  57.18999863
C    10.06999969  10.82999992  56.93999863
C     8.98999977  11.03000069  57.84000015
C     7.68000031  10.73999977  57.54000092
C     7.31999969  10.19999981  56.27999878
C     8.31999969  10.01999950  55.34999847
C     9.65999985  10.38000011  55.63999939
C    13.81000042  11.31999969  56.24000168
C    14.48999977  10.98999977  55.04000092
C    15.88000107  10.88999939  55.04000092
C     5.91000032   9.82999992  55.86000061
H     5.37660837  10.51274109  55.19859314
H    10.44999981  10.15999985  53.61000061
H    11.54999924  11.64999962  58.18999863
H     9.13999939  11.33999920  58.87000275
H     6.83000040  11.09000015  58.13000107
H     8.15999985   9.56999969  54.38000107
H    16.46999931  10.55999947  54.19000244
H     5.32000017   9.59999943  56.75000000
H     6.06999969   8.92000008  55.27000046
S    17.59000015  12.64000034  52.83000183
C    20.32999992  12.53999901  52.35000229
C    19.05999947  12.30000019  51.88999939
C    18.71999931  11.92000008  50.54999924
C    19.71999931  11.82000065  49.59999847
C    21.05999947  12.00000000  50.01999664
C    22.09000015  11.64999962  49.09999847
C    23.40999985  11.80999947  49.45000076
C    23.71999931  12.43000031  50.68999863
C    22.73999977  12.58999920  51.63000107
C    21.35999870  12.34000015  51.38999939
C    17.28999901  11.77999973  50.34000015
C    16.54000092  12.20999908  51.46999741
C    15.14999962  12.25000000  51.40999603
C    25.13000107  12.76999950  51.10000229
H    25.55684090  12.24356174  51.95368195
H    20.62999916  12.92000008  53.31999969
H    19.45000076  11.28000069  48.69999695
H    21.90999985  11.16000080  48.15000153
H    24.27000046  11.54999924  48.85000229
H    22.95000076  12.97999954  52.63000107
H    14.52000046  12.38999939  52.29000092
H    25.79999924  12.50000000  50.26000214
H    25.05000114  13.86000061  51.17000198
S    14.35999966  10.62000084  47.88999939
C    11.56000042  10.57999992  48.33000183
C    12.82999992  10.93999958  48.72000122
C    13.10999966  11.46999931  50.01999664
C    12.05000019  11.82999992  50.84000015
C    10.75000000  11.38000011  50.47999954
C     9.65999985  11.64000034  51.36000061
C     8.38999939  11.18000031  51.07999802
C     8.14000034  10.52999973  49.85000229
C     9.13000011  10.39999962  48.89999771
C    10.47000027  10.77000046  49.20999908
C    14.51000023  11.77999973  50.26000214
C    15.32999992  11.23999977  49.23999786
C    16.72000122  11.19999981  49.20000076
C     6.77999973   9.96000004  49.51000214
H     6.29814291  10.62609768  48.79430008
H    11.28999901  10.03999901  47.43000031
H    12.28999996  12.43000031  51.70999908
H     9.92999935  12.10000038  52.30999756
H     7.60999966  11.40999985  51.79000092
H     8.97000027   9.80000019  48.01000214
H    17.28999901  10.73999977  48.40999985
H     6.25999975   9.89000034  50.47000122
H     6.84999990   8.94999981  49.09000015
