96

S    16.53000069  11.61000061  58.89999771
C    19.29999924  11.46999931  58.33000183
C    18.00000000  11.14999962  58.01000214
C    17.64000130  10.59999943  56.73999786
C    18.57999992  10.47999954  55.73999786
C    19.93999863  10.75000000  56.02000427
C    21.01000023  10.57999992  55.08999634
C    22.30999947  10.90000057  55.38000107
C    22.57999802  11.50000000  56.63999939
C    21.59000015  11.75000000  57.56000137
C    20.26000023  11.28999901  57.30999756
C    16.21000099  10.44000053  56.55000305
C    15.47000027  10.97000027  57.63999939
C    14.11000061  11.25000000  57.62000275
C    24.00000000  11.96000004  56.88999939
H    24.45638466  11.37525463  57.68867493
H    19.52999878  11.97999954  59.26000214
H    18.27000046  10.06999969  54.78000259
H    20.81000137  10.14999962  54.10999680
H    23.12999916  10.62000084  54.72000122
H    21.73000145  12.34000015  58.44999695
H    13.55000019  11.50000000  58.52000427
H    24.61000061  11.90999985  55.97999954
H    23.75000000  12.98999977  57.18000031
S    13.12000084  10.15999985  53.94000244
C    10.38000011  10.22999954  54.45000076
C    11.65999985  10.47999954  54.88999939
C    11.95000076  10.98000050  56.19999695
C    10.88999939  11.23000050  57.06999969
C     9.56999969  10.98999977  56.62000275
C     8.47000027  11.23999977  57.49000168
C     7.18999958  10.88000107  57.12999725
C     6.91999960  10.27999973  55.86999893
C     7.92999983  10.24000072  54.93999863
C     9.27999973  10.44999981  55.31999969
C    13.38000107  11.02000046  56.44000244
C    14.14000034  10.54999924  55.34000015
C    15.48999977  10.25000000  55.35999680
C     5.59000015   9.61000061  55.61999893
H     4.98140144  10.30352020  55.03970718
H    10.24000072   9.76000023  53.48999786
H    11.06999969  11.64999962  58.04999924
H     8.61999989  11.52999973  58.52000427
H     6.35999966  10.97000027  57.83000183
H     7.69000006   9.84000015  53.95000076
H    15.98000050   9.94999981  54.43000031
H     5.23999977   9.35000038  56.62000275
H     5.73000002   8.69000053  55.04000092
S    17.04000092  11.69999981  52.81999969
C    19.76000023  12.03999996  52.14000320
C    18.45999908  11.77000046  51.76000214
C    18.19000053  11.23999977  50.45999908
C    19.25000000  10.92000008  49.62999725
C    20.56999969  11.32999992  49.92000198
C    21.65999985  11.26999950  49.00000000
C    22.95999908  11.64000034  49.26000214
C    23.22999954  12.05999947  50.59000015
C    22.20000076  12.18999958  51.49000168
C    20.82999992  11.92000008  51.20999908
C    16.76000023  11.19999981  50.21999741
C    16.02000046  11.51999950  51.38999939
C    14.65000057  11.77999973  51.43000031
C    24.64999962  12.35999966  51.02000427
H    25.00643158  11.59010983  51.70434952
H    20.05000114  12.31999969  53.15000153
H    18.98999977  10.64000034  48.61000061
H    21.40000153  10.75000000  48.09000015
H    23.68000031  11.56000042  48.44999695
H    22.39999962  12.61999989  52.45999908
H    14.06000042  12.17000008  52.25999832
H    25.29999924  12.51999950  50.14999771
H    24.57999992  13.30999947  51.56000137
S    13.50999928  10.88999939  47.74000168
C    10.82999992  10.70000076  48.47999954
C    12.13999939  10.90000057  48.87000275
C    12.51000023  11.30000019  50.19000244
C    11.51000023  11.50000000  51.12999725
C    10.17000008  11.19999981  50.79999924
C     9.09000015  11.40999985  51.70999908
C     7.77999973  11.05000019  51.49000168
C     7.50000000  10.55999947  50.18000031
C     8.47000027  10.44000053  49.20999908
C     9.81999969  10.80999947  49.45999908
C    13.94999981  11.50000000  50.25000000
C    14.65000057  11.18999958  49.06000137
C    16.03000069  11.05999947  49.02999878
C     6.07999992  10.06999969  49.94999695
H     5.57487202  10.75298977  49.26700974
H    10.65000057  10.34999943  47.47000122
H    11.69999981  11.82000065  52.15000153
H     9.40999985  11.71000004  52.70999908
H     7.05999947  11.28999901  52.25999832
H     8.07999992  10.15999985  48.23999786
H    16.52000046  10.81999969  48.09000015
H     5.46000004   9.98000050  50.84999847
H     6.15000010   9.06999969  49.52000046
