96

S    16.60000038  11.42000008  58.80000305
C    19.27000046  11.84999943  58.11000061
C    18.02000046  11.42000008  57.74000168
C    17.63000107  11.21000099  56.38000107
C    18.65999985  11.17000008  55.45999908
C    20.02000046  11.35000038  55.81999969
C    21.09000015  11.23999977  54.88999939
C    22.39999962  11.36000061  55.28999710
C    22.63000107  12.05000019  56.51000214
C    21.65999985  12.18000031  57.47000122
C    20.31999969  11.77999973  57.15999985
C    16.18999863  11.14999962  56.18000031
C    15.51000023  11.38000011  57.39999771
C    14.13000011  11.54999924  57.47000122
C    24.02000046  12.51999950  56.88999939
H    24.51176643  11.84292793  57.58845520
H    19.37999916  12.15999985  59.15000153
H    18.39999962  11.25000000  54.40999985
H    20.90999985  10.93999958  53.86000061
H    23.23999786  11.28000069  54.59999847
H    21.87000084  12.53999901  58.47000122
H    13.66000080  11.76000023  58.43000031
H    24.56999969  12.69999981  55.96000290
H    23.81000137  13.50000000  57.32999802
S    12.96000004  10.67999935  53.75999832
C    10.22999954  10.88999939  54.40000153
C    11.54000092  10.98000050  54.79000092
C    11.90999985  11.42000008  56.10000229
C    10.93999958  11.40999985  57.08000183
C     9.57999992  11.13000011  56.81000137
C     8.55000019  11.03000069  57.77999878
C     7.26000023  10.78999996  57.36999893
C     6.89000034  10.57999992  56.02000427
C     7.88999987  10.69000053  55.06999969
C     9.23999977  10.95000076  55.41999817
C    13.35000038  11.38000011  56.31999969
C    14.04000092  11.00000000  55.13999939
C    15.42000008  10.93000031  55.02999878
C     5.53999996  10.10000038  55.56999969
H     5.02175808  10.76732540  54.88137436
H     9.98000050  10.50000000  53.41999817
H    11.23000050  11.52999973  58.11999893
H     8.85999966  11.05000019  58.82999802
H     6.56000042  10.53999996  58.15999985
H     7.63999987  10.51000023  54.02000046
H    15.88999939  10.65000057  54.09000015
H     4.92999983  10.06000042  56.47999573
H     5.53999996   9.09000015  55.13000107
S    13.01000023   8.36000061  50.63999939
C    10.36000061   8.31999969  51.35000229
C    11.63000011   7.86000013  51.63000107
C    11.98999977   7.27999973  52.88999939
C    10.97000027   6.98000002  53.77999878
C     9.63000011   7.26999998  53.41999817
C     8.56999969   6.71999979  54.20000076
C     7.26999998   7.04999971  53.90999603
C     6.96000004   7.75000000  52.70999908
C     7.92999983   8.15999985  51.83000183
C     9.28999996   7.96000004  52.19999695
C    13.43000031   7.36999989  53.06000137
C    14.11999893   7.92999983  51.95999908
C    15.47000027   8.25000000  52.01000214
C     5.52999973   8.18000031  52.45999908
H     5.03919554   7.61095095  51.67044449
H    10.14999962   8.93000031  50.47999954
H    11.13999939   6.21999979  54.54000092
H     8.65999985   6.10000038  55.08999634
H     6.44000006   6.67999983  54.50000000
H     7.73999977   8.78000069  50.96000290
H    15.95000076   8.75000000  51.18000031
H     4.94000006   8.18000031  53.37999725
H     5.59999990   9.22999954  52.15000153
S    16.54000092   7.04999971  55.66999817
C    19.25000000   7.37999964  55.00000000
C    17.93000031   7.69000006  54.78000259
C    17.57999992   8.23999977  53.50000000
C    18.56999969   8.78000069  52.70000076
C    19.95000076   8.57999992  52.95999908
C    20.98999977   9.01000023  52.08000183
C    22.29999924   8.67000008  52.28000259
C    22.65999985   7.85000038  53.39000320
C    21.65999985   7.44999981  54.23999786
C    20.28000069   7.76000023  54.09999847
C    16.17000008   8.03999996  53.20000076
C    15.51000023   7.34000015  54.25000000
C    14.15999985   7.03000021  54.20999908
C    24.11999893   7.51999950  53.62999725
H    24.53141403   8.00234699  54.51666641
H    19.37999916   6.61000013  55.75000000
H    18.23999977   9.34000015  51.83000183
H    20.71000099   9.42000008  51.11999893
H    23.09000015   8.88000011  51.56000137
H    21.94999886   6.74000025  55.00999832
H    13.71000099   6.78999996  55.17000198
H    24.71999931   7.73999977  52.74000168
H    24.25000000   6.43000031  53.66000366
