96

S    16.67000008  12.28999996  58.53000259
C    19.47000122  12.20000076  58.13999939
C    18.19000053  11.92999935  57.70000076
C    17.94000053  11.40999985  56.38999939
C    18.97999954  10.97000027  55.59000015
C    20.29999924  11.19999981  56.04999924
C    21.42000008  10.95999908  55.20999908
C    22.72000122  11.21999931  55.56999969
C    22.95000076  11.76000023  56.86000061
C    21.90000153  12.13999939  57.65999603
C    20.55000114  11.89000034  57.28000259
C    16.52000046  11.31000042  56.07999802
C    15.71000004  11.90000057  57.09000015
C    14.32999992  11.97999954  57.15000153
C    24.33000183  12.22000027  57.28000259
H    24.88315201  11.48246288  57.86151886
H    19.67000008  12.84000015  59.00000000
H    18.81999969  10.62000084  54.58000183
H    21.14999962  10.40999985  54.31000137
H    23.59999847  10.95999908  54.99000168
H    22.04999924  12.50000000  58.68000031
H    13.78000069  12.44999981  57.95999908
H    24.89000130  12.35999966  56.35000229
H    24.28999901  13.15000057  57.84999847
S    13.35000038  10.51000023  53.64999771
C    10.54999924  10.46000004  54.20999908
C    11.84999943  10.75000000  54.55999756
C    12.18999958  11.23000050  55.86000061
C    11.17000008  11.67000008  56.69000244
C     9.82999992  11.28999901  56.43000031
C     8.82999992  11.56999969  57.39999771
C     7.51999950  11.25000000  57.15999985
C     7.21000004  10.69000053  55.89000320
C     8.15999985  10.34999943  54.94999695
C     9.52000046  10.67999935  55.15999603
C    13.60999966  11.33999920  56.11999893
C    14.40000057  10.90999985  55.02999878
C    15.78999996  10.82999992  54.98000336
C     5.78999996  10.32999992  55.52000046
H     5.39117336  10.95672798  54.72234726
H    10.26999950   9.94999981  53.29000092
H    11.36999989  12.18999958  57.62000275
H     9.11000061  12.10999966  58.30999756
H     6.77999973  11.43000031  57.94000244
H     7.82999992   9.84000015  54.03999710
H    16.27000046  10.27999973  54.16999817
H     5.15999985  10.47000027  56.40999603
H     5.75000000   9.26999950  55.24000168
S    13.36999989   8.63000011  50.93000031
C    10.82999992   7.69000006  51.44000244
C    12.15000057   7.72000027  51.83000183
C    12.58999920   7.23000002  53.09999847
C    11.68000031   6.74000025  54.01000214
C    10.31000042   6.76000023  53.68000031
C     9.36999989   6.34999990  54.66999817
C     8.01999950   6.43000031  54.40000153
C     7.55000019   6.89000034  53.15000153
C     8.47000027   7.30000019  52.21000290
C     9.88000011   7.20000029  52.37999725
C    14.04999924   7.27999973  53.15999985
C    14.56999969   8.10000038  52.11999893
C    15.90999985   8.47999954  52.14000320
C     6.06999969   7.00999975  52.85999680
H     5.72325420   7.27890539  51.86222076
H    10.39000034   8.23999977  50.61000061
H    12.05000019   6.48000002  55.00000000
H     9.73999977   5.86000013  55.56000137
H     7.30000019   6.02999973  55.11000061
H     8.21000004   7.82999992  51.30000305
H    16.34000015   9.02000046  51.30000305
H     5.64000034   6.01999998  53.02999878
H     5.63000011   7.63999987  53.64999771
S    17.30999947   6.88000011  55.47000122
C    19.97999954   7.34000015  54.91000366
C    18.67000008   7.49000025  54.51000214
C    18.20000076   8.17000008  53.34000015
C    19.15999985   8.75000000  52.52999878
C    20.52999878   8.55000019  52.81999969
C    21.51000023   9.17000008  51.98999786
C    22.85000038   9.00000000  52.22999954
C    23.28000069   8.28999996  53.39000320
C    22.34999847   7.78999996  54.27000046
C    20.95000076   7.86999989  54.02000046
C    16.76000023   8.03999996  53.15000153
C    16.13999939   7.35000038  54.22999954
C    14.82999992   6.88000011  54.25000000
C    24.75000000   7.99000025  53.56999969
H    25.00654030   8.08976650  54.62467194
H    20.23999977   6.76000023  55.79000092
H    18.78999901   9.32999992  51.68000031
H    21.09000015   9.75000000  51.17000198
H    23.61000061   9.21000004  51.47999573
H    22.69000053   7.20000029  55.12000275
H    14.37999916   6.35999966  55.08999634
H    25.34000015   8.63000011  52.90999985
H    24.84000015   6.94000006  53.27000046
