96

S    16.69999886  11.90000057  58.86000061
C    19.38999939  12.06999969  58.16999817
C    18.11000061  11.75000000  57.78999710
C    17.82999992  11.35000038  56.44000244
C    18.86000061  11.18999958  55.52999878
C    20.20999908  11.43000031  55.89000320
C    21.21999931  11.54999924  54.91000366
C    22.53000069  11.84999943  55.21999741
C    22.75000000  12.35000038  56.52999878
C    21.76000214  12.39999962  57.48000336
C    20.43999863  11.92999935  57.22000122
C    16.38000107  11.25000000  56.32999802
C    15.62999916  11.64000034  57.47000122
C    14.23999977  11.67000008  57.45999908
C    24.20000076  12.61999989  56.90000153
H    24.52729988  12.09347248  57.79652023
H    19.60000038  12.57999992  59.10999680
H    18.56999969  11.09000015  54.48999786
H    21.00000000  11.30000019  53.87000275
H    23.29000092  11.59000015  54.50000000
H    21.91999817  12.84999943  58.44999695
H    13.73000050  11.78999996  58.41999817
H    24.84000015  12.39999962  56.04000092
H    24.36000061  13.68000031  57.16999817
S    13.23999977  10.62000084  53.75999832
C    10.47000027  10.40999985  54.34999847
C    11.75000000  10.75000000  54.72999954
C    12.10999966  11.23000050  56.03000259
C    11.10000038  11.38000011  56.95999908
C     9.76000023  11.07999992  56.62000275
C     8.76000023  11.18000031  57.63000107
C     7.44000006  11.00000000  57.25999832
C     7.05999947  10.65000057  55.93999863
C     8.05000019  10.48999977  55.00000000
C     9.44000053  10.65000057  55.28999710
C    13.53999996  11.36000061  56.30000305
C    14.27999973  10.95999908  55.15999603
C    15.67000008  10.90999985  55.17000198
C     5.64000034  10.17000008  55.72999954
H     5.09080410  10.77625561  55.00962830
H    10.19000053  10.19999981  53.31999969
H    11.44999981  11.68000031  57.95000076
H     9.10000038  11.44999981  58.61999893
H     6.74000025  11.10999966  58.08000183
H     7.77999973  10.05000019  54.05000305
H    16.22999954  10.76000023  54.25000000
H     5.14999962  10.31000042  56.70000076
H     5.65999985   9.11000061  55.44000244
S    13.38999939   8.42000008  50.98999786
C    10.67999935   7.99000025  51.56000137
C    12.00000000   7.82999992  51.90999985
C    12.34000015   7.28999996  53.18999863
C    11.36999989   6.86999989  54.08000183
C    10.01000023   6.97000027  53.72000122
C     9.02999973   6.54999971  54.66999817
C     7.72000027   6.72999954  54.27999878
C     7.36000013   7.44000006  53.11000061
C     8.30000019   7.82000017  52.16999817
C     9.67000008   7.59000015  52.45999908
C    13.76999950   7.40000010  53.43999863
C    14.45000076   8.01999950  52.35000229
C    15.73999977   8.53999996  52.39999771
C     5.91000032   7.64999962  52.75000000
H     5.52030373   6.79975271  52.19025421
H    10.57999992   8.67999935  50.72000122
H    11.59999943   6.81999969  55.13999939
H     9.23999977   5.92999983  55.54000092
H     6.81999969   6.40999985  54.79000092
H     8.10999966   8.11999989  51.13999939
H    16.22999954   9.10000038  51.60999680
H     5.42999983   7.86000013  53.70999908
H     5.82999992   8.59000015  52.18999863
S    17.00000000   6.61999989  55.72999954
C    19.63000107   7.34000015  55.24000168
C    18.30000114   7.50999975  54.92000198
C    17.88999939   8.22000027  53.75000000
C    18.82999992   8.73999977  52.88000107
C    20.19000053   8.64999962  53.23999786
C    21.11999893   9.19999981  52.31999969
C    22.46999931   8.97000027  52.50999832
C    22.93000031   8.30999947  53.68000031
C    22.03000069   7.78999996  54.58000183
C    20.62000084   7.90999985  54.40000153
C    16.45000076   8.14000034  53.54000092
C    15.88000107   7.30999994  54.54000092
C    14.52000046   7.00999975  54.54999924
C    24.38999939   8.01999950  53.94000244
H    24.83652306   8.52322388  54.79760361
H    19.98999977   6.75000000  56.07999802
H    18.60999870   9.13000011  51.88999939
H    20.78000069   9.52999973  51.33999634
H    23.18000031   9.27999973  51.75000000
H    22.32999992   7.30999994  55.50000000
H    14.21000004   6.50000000  55.45999908
H    24.93000031   8.23999977  53.01000214
H    24.38999939   6.94999981  54.13999939
