96

S    16.59000015  11.97999954  58.83999634
C    19.31999969  11.92000008  58.22999954
C    18.02000046  11.69999981  57.84000015
C    17.67000008  11.26000023  56.52000046
C    18.65999985  11.05000019  55.58000183
C    20.00999832  11.19999981  55.98999786
C    21.04000092  11.13999939  55.00000000
C    22.32999992  11.49000072  55.31999969
C    22.67999840  11.78999996  56.66999817
C    21.73000145  11.80999947  57.65999603
C    20.36000061  11.61000061  57.31999969
C    16.22999954  11.10999966  56.36000061
C    15.51000023  11.54999924  57.50000000
C    14.14000034  11.73999977  57.52999878
C    24.06999969  12.28000069  56.98999786
H    24.64031219  11.65978527  57.68150330
H    19.62000084  12.55000019  59.06000137
H    18.36000061  10.76000023  54.58000183
H    20.79000092  10.86999989  53.97999573
H    22.92000008  11.68000031  54.43000031
H    22.07999992  12.20999908  58.61000061
H    13.71999931  12.13999939  58.44999695
H    24.56000137  12.44999981  56.03000259
H    23.90999985  13.27999973  57.41000366
S    13.10999966  10.31999969  53.92000198
C    10.39000034  10.25000000  54.62999725
C    11.67000008  10.65999985  54.89999771
C    11.97000027  11.25000000  56.18000031
C    10.98999977  11.35000038  57.15000153
C     9.63999939  11.05000019  56.86000061
C     8.53999996  11.10000038  57.77000046
C     7.23000002  10.82999992  57.44999695
C     7.00000000  10.31000042  56.14999771
C     8.01999950  10.14999962  55.22999573
C     9.35000038  10.53999996  55.54999924
C    13.40000057  11.38000011  56.38999939
C    14.11000061  10.82999992  55.28999710
C    15.50000000  10.77000046  55.20999908
C     5.58000040   9.92000008  55.81999969
H     5.20290184  10.46074486  54.95196152
H    10.14000034   9.84000015  53.66000366
H    11.30000019  11.72000027  58.13000107
H     8.75000000  11.26000023  58.82999802
H     6.46000004  11.23999977  58.09000015
H     7.81000042   9.81999969  54.22000122
H    16.00000000  10.50000000  54.29000092
H     5.13000011  10.13000011  56.79999924
H     5.55999994   8.82999992  55.65999985
S    13.69999981   8.47999954  50.90999985
C    11.03000069   7.76999998  51.36000061
C    12.35000038   7.68000031  51.72999954
C    12.76000023   7.07000017  52.95999908
C    11.79999924   6.57000017  53.82999802
C    10.44000053   6.84000015  53.54999924
C     9.47000027   6.21000004  54.36000061
C     8.14000034   6.35999966  54.02999878
C     7.69999981   7.17999983  52.95999908
C     8.64999962   7.75000000  52.14000320
C    10.03000069   7.44000006  52.30999756
C    14.17000008   7.27999973  53.26000214
C    14.77000046   8.10999966  52.27000427
C    16.11999893   8.43000031  52.30999756
C     6.21999979   7.40000010  52.75000000
H     5.82878733   6.88075447  51.87510681
H    10.81999969   8.36000061  50.47000122
H    12.15999985   5.82999992  54.54000092
H     9.71000004   5.53999996  55.18000031
H     7.40999985   5.89999962  54.68000031
H     8.36000061   8.51000023  51.40999603
H    16.67000008   9.03999996  51.59999847
H     5.61999989   7.11000013  53.61999893
H     6.21000004   8.47000027  52.50000000
S    17.36999893   6.61000013  55.65999985
C    20.03000069   7.26000023  55.10000229
C    18.70000076   7.40999985  54.79999924
C    18.27000046   8.13000011  53.62999725
C    19.17000008   8.57999992  52.68000031
C    20.53999901   8.46000004  53.02000046
C    21.55999947   8.93999958  52.14000320
C    22.88999939   8.76999950  52.45999908
C    23.34000015   8.11999989  53.62999725
C    22.37999916   7.69000006  54.51000214
C    20.98999977   7.82000017  54.22999954
C    16.82999992   8.06999969  53.46000290
C    16.22999954   7.27999973  54.47999954
C    14.91000080   6.85999966  54.36000061
C    24.80999947   7.76000023  53.73000336
H    25.27192879   8.14375782  54.63964844
H    20.32999992   6.63000011  55.94999695
H    18.93000031   9.23999977  51.84999847
H    21.14999962   9.43000031  51.25999832
H    23.65999985   9.06000042  51.75000000
H    22.78000069   7.09000015  55.33000183
H    14.50000000   6.30000019  55.20000076
H    25.29999924   8.15999985  52.84000015
H    24.79999924   6.65999985  53.76999664
