96

S    16.87999916  12.13999939  58.69999695
C    19.57999992  12.18000031  58.08000183
C    18.30999947  11.77999973  57.71999741
C    17.98999977  11.28999901  56.42000198
C    19.01000023  11.33999920  55.47999954
C    20.31999969  11.77999973  55.77999878
C    21.42000008  11.77000046  54.87999725
C    22.70999908  12.13000107  55.21999741
C    22.95000076  12.58999920  56.53999710
C    21.90999985  12.71000004  57.43999863
C    20.62999916  12.18000031  57.11999893
C    16.54999924  11.26999950  56.23000336
C    15.80000019  11.69999981  57.36000061
C    14.42999935  11.92999935  57.41000366
C    24.33000183  12.88000011  57.09000015
H    24.83628273  12.06709576  57.61054230
H    19.81999969  12.69000053  59.01000214
H    18.75000000  10.84000015  54.54999924
H    21.21000099  11.28999901  53.93000031
H    23.52999878  12.00000000  54.52000046
H    21.97000122  13.21000004  58.40000153
H    13.97999954  12.30000019  58.33000183
H    24.96999931  13.30000019  56.30000305
H    24.04000092  13.69999981  57.76000214
S    13.43000031  10.59999943  53.76999664
C    10.65999985  10.85999966  54.36999893
C    11.97999954  11.11999989  54.65999985
C    12.30999947  11.57999992  55.97999954
C    11.28999901  11.73999977  56.88999939
C     9.92999935  11.46999931  56.59000015
C     8.86999989  11.57999992  57.52999878
C     7.57999992  11.26000023  57.21000290
C     7.21000004  10.88000107  55.89000320
C     8.22000027  10.72000027  54.97000122
C     9.57999992  11.03000069  55.26000214
C    13.73999977  11.54000092  56.25999832
C    14.46000004  11.09000015  55.13000107
C    15.85000038  11.03999996  55.04000092
C     5.75999975  10.65999985  55.54000092
H     5.36226702  11.19978046  54.68061447
H    10.44999981  10.60999966  53.33000183
H    11.61000061  12.06999969  57.87000275
H     9.15999985  11.87000084  58.54000092
H     6.80999994  11.23000050  57.97999954
H     8.01000023  10.32999992  53.97999573
H    16.22999954  10.85000038  54.03999710
H     5.15999985  10.90000057  56.43000031
H     5.68000031   9.57999992  55.40999985
S    13.99000072   8.48999977  51.03000259
C    11.26000023   8.19999981  51.70000076
C    12.57999992   7.96000004  51.97999954
C    12.98999977   7.32999992  53.20000076
C    11.97999954   6.75000000  53.94000244
C    10.59000015   6.90000010  53.70999908
C     9.52999973   6.48000002  54.55999756
C     8.22000027   6.76000023  54.26000214
C     7.90999985   7.63999987  53.18000031
C     8.90999985   8.14999962  52.38999939
C    10.25000000   7.69000006  52.55000305
C    14.42000008   7.46000004  53.43000031
C    15.10000038   8.09000015  52.35000229
C    16.45000076   8.45000076  52.38999939
C     6.50000000   8.11999989  52.94000244
H     6.11518764   7.66392660  52.02785110
H    11.00000000   8.78000069  50.81999969
H    12.23000050   6.23000050  54.86000061
H     9.78999996   6.05999994  55.52000046
H     7.36999989   6.46000004  54.86999893
H     8.56000042   8.82999992  51.62000275
H    16.87999916   8.86999989  51.47999573
H     5.95000029   7.78999996  53.82999802
H     6.34000015   9.21000004  52.90000153
S    17.85000038   6.80999994  55.68000031
C    20.52999878   7.50999975  55.14999771
C    19.19999886   7.59000015  54.84000397
C    18.70000076   8.14999962  53.61000061
C    19.64999962   8.52999973  52.68000031
C    21.04000092   8.43999958  52.93000031
C    22.01000023   8.94999981  52.01000214
C    23.34000015   8.97000027  52.36000061
C    23.78999901   8.52000046  53.62999725
C    22.88000107   7.95000029  54.47999954
C    21.48999977   7.88999987  54.18000031
C    17.26000023   8.06999969  53.46000290
C    16.62999916   7.34000015  54.51000214
C    15.26999950   7.07000017  54.47000122
C    25.20999908   8.89000034  54.02999878
H    25.55181503   8.42712688  54.95574570
H    20.72000122   7.07999992  56.12999725
H    19.34999847   8.85999966  51.69000244
H    21.64999962   9.47000027  51.12999725
H    24.03000069   9.38000011  51.63000107
H    23.11000061   7.73000002  55.52000046
H    14.75000000   6.63999987  55.33000183
H    25.19000053   9.96999931  54.23999786
H    25.95999908   8.61999989  53.27999878
