96

S    16.95999908  12.43999958  58.72000122
C    19.68000031  12.38000011  58.16999817
C    18.42000008  11.96000004  57.81999969
C    18.11000061  11.35000038  56.56000137
C    19.12999916  11.13000011  55.65000153
C    20.45000076  11.57999992  55.90000153
C    21.52000046  11.43000031  54.98000336
C    22.79999924  11.77000046  55.31999969
C    23.05000114  12.31999969  56.60999680
C    22.04000092  12.41000080  57.55000305
C    20.69000053  12.18000031  57.18999863
C    16.68000031  11.17000008  56.40999603
C    15.92000008  11.72000027  57.47000122
C    14.55999947  11.98999977  57.36999893
C    24.47000122  12.64000034  57.00000000
H    24.92493820  11.95759296  57.71794891
H    20.02000046  12.72999954  59.15000153
H    18.95000076  10.65999985  54.68999863
H    21.40000153  10.86999989  54.05000305
H    23.64000130  11.64999962  54.65000153
H    22.29999924  12.68000031  58.56999969
H    14.06000042  12.53000069  58.16999817
H    25.13000107  12.56999969  56.12999725
H    24.53000069  13.68000031  57.36999893
S    13.48999977  10.43000031  53.90999603
C    10.76000023  10.42000008  54.65000153
C    12.06999969  10.76000023  54.92000198
C    12.43000031  11.51999950  56.06999969
C    11.46000004  11.82999992  57.02000046
C    10.13000011  11.39000034  56.81000137
C     9.07999992  11.63000011  57.74000168
C     7.77999973  11.23000050  57.54000092
C     7.44999981  10.48999977  56.37000275
C     8.45000076  10.11999989  55.50000000
C     9.77000046  10.62999916  55.63999939
C    13.86999989  11.46999931  56.26999664
C    14.60000038  10.85999966  55.21999741
C    15.98000050  10.71000004  55.27999878
C     6.03999996  10.03000069  56.05999756
H     5.58304596  10.62261200  55.26746750
H    10.48999977   9.98999977  53.68999863
H    11.77000046  12.30000019  57.95000076
H     9.38000011  11.98999977  58.72000122
H     6.94000006  11.52999973  58.15999985
H     8.23999977   9.47000027  54.65000153
H    16.50000000  10.29000092  54.41999817
H     5.50000000  10.11000061  57.01000214
H     6.14000034   8.97000027  55.79000092
S    13.83999920   8.30000019  51.13999939
C    11.18999958   7.69999981  51.69000244
C    12.51000023   7.59000015  52.06999969
C    12.96000004   6.90999985  53.23999786
C    11.92999935   6.48999977  54.06000137
C    10.55999947   6.70000029  53.80000305
C     9.53999996   6.32000017  54.72000122
C     8.23000050   6.32000017  54.29999924
C     7.82000017   6.83000040  53.04000092
C     8.76999950   7.35000038  52.18999863
C    10.14999962   7.22000027  52.51999664
C    14.35999966   7.22000027  53.47000122
C    14.98999977   7.97999954  52.44999695
C    16.29999924   8.43999958  52.48000336
C     6.39999962   7.34000015  52.94000244
H     5.98036242   7.11951303  51.95847702
H    10.88999939   8.27000046  50.80999756
H    12.20000076   6.00000000  55.00000000
H     9.86999989   5.86000013  55.65000153
H     7.48000050   5.95000029  54.99000168
H     8.60000038   8.02999973  51.35000229
H    16.68000031   8.98999977  51.62000275
H     5.72000027   6.85999966  53.64999771
H     6.46000004   8.42000008  53.08000183
S    17.63000107   7.02000046  55.96000290
C    20.30999947   7.31999969  55.07999802
C    18.96999931   7.59000015  54.93000031
C    18.53999901   8.17000008  53.68999863
C    19.38999939   8.71999931  52.75000000
C    20.78000069   8.65999985  52.97000122
C    21.73000145   9.04999924  51.97999954
C    23.05999947   8.78999996  52.23999786
C    23.51000023   8.01999950  53.34000015
C    22.57999802   7.60999966  54.27000046
C    21.18999863   7.90000010  54.12000275
C    17.09000015   8.05999947  53.56999969
C    16.47999954   7.40999985  54.66999817
C    15.14999962   7.00000000  54.61000061
C    24.96999931   7.65999985  53.48999786
H    25.38239288   8.15060425  54.37166595
H    20.62999916   6.61000013  55.83000183
H    19.04000092   8.92000008  51.72999954
H    21.35000038   9.47000027  51.05999756
H    23.92000008   9.07999992  51.63999939
H    22.96999931   6.96000004  55.04000092
H    14.65999985   6.47000027  55.43000031
H    25.50000000   7.95000029  52.57999802
H    25.02000046   6.56000042  53.48999786
