96

S    16.76000023  12.09000015  58.43000031
C    19.44000053  12.02000046  57.88000107
C    18.18000031  11.79999924  57.39999771
C    17.86000061  11.51000023  56.03000259
C    18.95000076  11.39000034  55.20000076
C    20.29000092  11.68000031  55.58000183
C    21.42999840  11.76000023  54.73999786
C    22.70000076  12.06999969  55.17000198
C    22.86000061  12.53999901  56.50000000
C    21.80000114  12.48999977  57.37999725
C    20.50000000  12.10000038  56.93999863
C    16.42000008  11.39000034  55.84999847
C    15.72000027  11.72000027  57.04999924
C    14.34000015  11.78999996  57.11999893
C    24.23000145  13.02999973  56.90000153
H    24.76074409  12.32234192  57.53689575
H    19.67000008  12.35000038  58.88999939
H    18.68000031  11.18999958  54.16999817
H    21.22999954  11.51000023  53.69999695
H    23.52999878  12.03999996  54.47000122
H    21.96000099  12.74000072  58.41999817
H    13.76000023  12.10000038  57.97999954
H    24.77999878  13.17000008  55.97000122
H    24.13999939  13.97999954  57.43000031
S    13.12000084  10.77999973  53.48999786
C    10.40999985  10.70000076  54.15999985
C    11.71000004  10.93999958  54.54000092
C    12.10000038  11.39000034  55.84000015
C    11.09000015  11.38000011  56.79000092
C     9.73999977  11.31000042  56.39999771
C     8.71000004  11.28000069  57.38999939
C     7.37999964  11.14999962  57.05999756
C     7.03000021  10.80999947  55.72999954
C     7.97999954  10.65999985  54.75000000
C     9.35000038  10.88999939  55.07999802
C    13.53999996  11.56000042  55.98999786
C    14.22999954  11.21000099  54.79999924
C    15.62000084  11.06999969  54.75000000
C     5.59999990  10.47999954  55.35999680
H     5.26591110  10.85673809  54.39327240
H    10.11000061  10.38000011  53.15999985
H    11.33999920  11.54999924  57.83000183
H     9.07999992  11.36000061  58.40000153
H     6.56000042  11.17000008  57.77000046
H     7.65999985  10.26999950  53.79000092
H    16.01000023  10.77999973  53.77999878
H     4.90999985  10.88999939  56.11000061
H     5.55000019   9.39000034  55.31000137
S    13.15999985   8.57999992  50.65000153
C    10.44000053   8.11999989  51.31999969
C    11.77999973   8.05000019  51.63000107
C    12.20000076   7.51999950  52.88999939
C    11.23999977   7.02000046  53.74000168
C     9.85000038   7.13999987  53.47000122
C     8.86999989   6.58999968  54.34000015
C     7.50999975   6.74000025  54.13000107
C     7.09999990   7.48000050  52.98999786
C     8.02999973   8.00000000  52.11999893
C     9.43000031   7.81000042  52.27000427
C    13.63999939   7.65999985  53.08000183
C    14.29999924   8.23000050  51.97000122
C    15.67999935   8.38999939  51.86999893
C     5.66999960   7.46999979  52.50000000
H     5.38559055   6.68787432  51.79608917
H    10.03999901   8.53999996  50.40000153
H    11.54000092   6.43000031  54.61000061
H     9.26000023   6.07999992  55.20999908
H     6.76000023   6.25000000  54.73999786
H     7.79999971   8.56999969  51.22000122
H    16.18999863   8.97000027  51.11000061
H     4.98000002   7.46000004  53.34999847
H     5.45000029   8.43000031  52.00000000
S    16.93000031   6.98000002  55.41999817
C    19.60000038   7.60999966  54.75000000
C    18.25000000   7.67000008  54.45999908
C    17.84000015   8.19999981  53.18999863
C    18.77000046   8.67999935  52.29000092
C    20.13999939   8.63000011  52.61000061
C    21.11999893   9.17000008  51.72999954
C    22.46000099   9.07999992  52.02999878
C    22.90999985   8.60999966  53.29000092
C    21.98999786   8.13000011  54.19000244
C    20.59999847   8.13000011  53.88999939
C    16.39999962   8.02999973  53.02000046
C    15.80000019   7.35000038  54.09999847
C    14.42000008   7.14999962  54.13000107
C    24.40999985   8.67999935  53.50999832
H    24.83730316   8.39513016  54.47143555
H    19.79999924   7.17999983  55.72000122
H    18.46999931   9.18000031  51.37000275
H    20.86999893   9.63999939  50.77999878
H    23.16999817   9.56999969  51.36000061
H    22.29000092   7.82999992  55.19000244
H    13.94000053   6.70000029  54.99000168
H    24.75000000   9.68000031  53.25000000
H    24.94999886   8.10000038  52.75000000
