96

S    16.55999947  12.28999996  58.61999893
C    19.25000000  12.07999992  57.83000183
C    17.93000031  11.73999977  57.63000107
C    17.54999924  11.21999931  56.35000229
C    18.52000046  10.90000057  55.40999985
C    19.88999939  11.17000008  55.65000153
C    20.92000008  10.85000038  54.71000290
C    22.23999977  11.11999989  54.98000336
C    22.59000015  11.79999924  56.18000031
C    21.63000107  12.13000107  57.09999847
C    20.27000046  11.77000046  56.90000153
C    16.10000038  11.30000019  56.25000000
C    15.39999962  11.78999996  57.37999725
C    14.01000023  11.82000065  57.43000031
C    24.02000046  12.18000031  56.49000168
H    24.53895760  11.66815090  57.30043030
H    19.52999878  12.48999977  58.80000305
H    18.18000031  10.29999924  54.58000183
H    20.62999916  10.51000023  53.73000336
H    23.01000214  10.90000057  54.23999786
H    21.90999985  12.61000061  58.02999878
H    13.59000015  12.25999928  58.33000183
H    24.61000061  12.09000015  55.56999969
H    24.09000015  13.23999977  56.77999878
S    12.82999992  10.52000046  53.81000137
C    10.13000011  10.51000023  54.64000320
C    11.44000053  10.84000015  54.87999725
C    11.82000065  11.36000061  56.16000366
C    10.88000107  11.77000046  57.09000015
C     9.52000046  11.51999950  56.79999924
C     8.53999996  11.69999981  57.81000137
C     7.21000004  11.40999985  57.61000061
C     6.80999994  10.67999935  56.45999908
C     7.75000000  10.52999973  55.45999908
C     9.11999989  10.88000107  55.56999969
C    13.27000046  11.44000053  56.31000137
C    13.92000008  10.95000076  55.14999771
C    15.31000042  10.93999958  55.14999771
C     5.40000010  10.17000008  56.29000092
H     4.93152189  10.59588909  55.40273285
H     9.77999973  10.11000061  53.68999863
H    11.09000015  12.28999996  58.01000214
H     8.89999962  12.23999977  58.68999863
H     6.48999977  11.54999924  58.40999985
H     7.40999985  10.14000034  54.50000000
H    15.65000057  10.57999992  54.19000244
H     4.78999996  10.32999992  57.18999863
H     5.40999985   9.06999969  56.30000305
S    17.04000092  12.64999962  52.70999908
C    19.76000023  12.67000008  51.98999786
C    18.46999931  12.28999996  51.72000122
C    18.13999939  11.56999969  50.52000046
C    19.12999916  11.23999977  49.61999893
C    20.45000076  11.68000031  49.86999893
C    21.50000000  11.31000042  48.96999741
C    22.80999947  11.52999973  49.31999969
C    23.15999985  12.31999969  50.44000244
C    22.18000031  12.65999985  51.33999634
C    20.81000137  12.36999989  51.07999802
C    16.69000053  11.54999924  50.37000275
C    15.93999958  12.03999996  51.46999741
C    14.55000019  12.18000031  51.52000046
C    24.60000038  12.69000053  50.75000000
H    25.02752495  11.98458576  51.46253967
H    20.02000046  13.20000076  52.90000153
H    18.95000076  10.84000015  48.61999893
H    21.12999916  10.73999977  48.13000107
H    23.59999847  11.14999962  48.68000031
H    22.42000198  13.09999943  52.30999756
H    14.04000092  12.51000023  52.41000366
H    25.15000153  12.76000023  49.79999924
H    24.57999992  13.68999958  51.18999863
S    13.50000000  10.88000107  47.93000031
C    10.77000046  10.65999985  48.61000061
C    12.05000019  11.05000019  48.94000244
C    12.38000011  11.59999943  50.21999741
C    11.33999920  11.85999966  51.09000397
C    10.00000000  11.51999950  50.79999924
C     8.94999981  11.87999916  51.69000244
C     7.65999985  11.64999962  51.29000092
C     7.36999989  10.86999989  50.13999939
C     8.36999989  10.52999973  49.25000000
C     9.72000027  10.85999966  49.54999924
C    13.80000019  11.84000015  50.38000107
C    14.55000019  11.33999920  49.27999878
C    15.92000008  11.13000011  49.27999878
C     5.95000029  10.44999981  49.85000229
H     5.57256460  10.92713547  48.94557953
H    10.53999996  10.31000042  47.61000061
H    11.56999969  12.51000023  51.93999863
H     9.18000031  12.32999992  52.64999771
H     6.90999985  11.84999943  52.04999924
H     8.21000004   9.92000008  48.36000061
H    16.42000008  10.72999954  48.40000153
H     5.44000053  10.85999966  50.72999954
H     5.79999971   9.36999989  49.69999695
