96

S    16.72000122  11.98999977  59.02000046
C    19.40000153  12.10000038  58.20000076
C    18.09999847  11.75000000  57.93000031
C    17.77000046  11.33999920  56.59999847
C    18.71000099  11.25000000  55.59000015
C    20.06000137  11.57999992  55.86000061
C    21.14000130  11.49000072  54.93000031
C    22.44999886  11.68000031  55.27999878
C    22.76000023  12.17000008  56.58000183
C    21.75000000  12.31999969  57.49000168
C    20.38999939  12.01000023  57.18999863
C    16.32999992  11.16000080  56.52999878
C    15.62000084  11.56000042  57.69000244
C    14.22999954  11.61000061  57.72999573
C    24.18999863  12.53000069  56.91999817
H    24.46074677  11.97425556  57.81774139
H    19.56999969  12.53000069  59.18000031
H    18.51000023  10.80999947  54.61000061
H    20.88999939  11.16000080  53.93000031
H    23.19000053  11.61000061  54.47999954
H    21.96000099  12.77999973  58.46000290
H    13.76000023  11.97000027  58.63999939
H    24.86999893  12.22000027  56.11000061
H    24.37000084  13.60999966  57.05999756
S    13.12999916  10.52000046  54.06000137
C    10.39999962  10.82999992  54.62999725
C    11.71000004  11.02000046  54.99000168
C    12.02999973  11.39000034  56.33999634
C    11.03000069  11.72000027  57.22999954
C     9.70000076  11.43000031  56.84999847
C     8.64999962  11.63000011  57.80000305
C     7.34000015  11.47999954  57.43000031
C     7.02000046  10.92000008  56.17000198
C     7.96999979  10.72000027  55.19000244
C     9.31999969  11.00999928  55.52999878
C    13.45999908  11.33999920  56.59000015
C    14.17000008  10.95000076  55.43000031
C    15.55999947  10.81999969  55.40999985
C     5.55000019  10.69000053  55.89000320
H     5.21516466  10.97496700  54.89261627
H    10.18000031  10.36000061  53.67000198
H    11.23999977  12.10999966  58.22000122
H     8.93000031  12.09000015  58.75000000
H     6.51999998  11.61000061  58.13999939
H     7.73000002  10.22999954  54.25000000
H    16.05999947  10.60999966  54.47000122
H     4.96000004  11.18999958  56.66999817
H     5.40000010   9.61000061  55.90999985
S    17.22999954  12.57999992  52.84000015
C    19.95000076  12.67000008  52.15000153
C    18.64999962  12.38000011  51.79000092
C    18.23999977  11.87999916  50.51000214
C    19.23999977  11.65999985  49.58000183
C    20.56999969  12.03999996  49.88999939
C    21.64999962  11.71000004  49.02000046
C    22.98000145  11.87999916  49.34999847
C    23.35000038  12.51000023  50.56000137
C    22.34000015  12.82999992  51.44000244
C    20.97999954  12.53999901  51.18000031
C    16.79999924  11.78999996  50.34999847
C    16.10000038  12.18999958  51.52999878
C    14.72000027  12.30999947  51.52999878
C    24.80999947  12.76000023  50.89000320
H    25.23766136  12.18265724  51.70968628
H    20.19000053  13.10999966  53.11000061
H    18.97999954  11.25000000  48.61000061
H    21.42000008  11.26000023  48.06000137
H    23.72999954  11.54000092  48.63999939
H    22.65999985  13.19000053  52.42000198
H    14.30999947  12.76000023  52.43000031
H    25.45999908  12.77999973  50.00000000
H    24.94999886  13.78999901  51.22000122
S    13.50000000  11.13999939  47.90000153
C    10.84000015  11.10999966  48.63999939
C    12.11999989  11.51000023  48.94000244
C    12.53999901  11.95000076  50.24000168
C    11.54999924  12.20999908  51.17000198
C    10.22999954  11.78999996  50.90000153
C     9.19999981  12.09000015  51.84000015
C     7.88999987  11.82999992  51.51000214
C     7.50999975  11.16000080  50.31000137
C     8.47000027  10.95000076  49.34999847
C     9.81999969  11.30000019  49.61000061
C    13.99000072  12.00000000  50.38000107
C    14.63000107  11.56000042  49.20000076
C    16.01000023  11.43000031  49.25000000
C     6.07999992  10.84000015  49.94999695
H     5.59663725  11.48685265  49.21784973
H    10.57999992  10.81999969  47.63000107
H    11.61000061  12.64999962  52.16999817
H     9.44999981  12.63000011  52.74000168
H     7.13000011  12.18999958  52.19999695
H     8.22000027  10.65000057  48.33000183
H    16.57999992  10.98999977  48.43999863
H     5.46000004  10.85000038  50.84999847
H     6.00000000   9.77999973  49.64000320
