96

S    16.31000137  11.64999962  58.82999802
C    18.96999931  11.79999924  58.02999878
C    17.68000031  11.42000008  57.72999573
C    17.32999992  11.07999992  56.38000107
C    18.34000015  10.95000076  55.45000076
C    19.69000053  11.23000050  55.77000046
C    20.72999954  10.98999977  54.81999969
C    22.01000023  11.28999901  55.20000076
C    22.36000061  11.95000076  56.40999603
C    21.35999870  12.11999989  57.34000397
C    20.03000069  11.67000008  57.09999847
C    15.88000107  11.09000015  56.24000168
C    15.21999931  11.43000031  57.43999863
C    13.83999920  11.61000061  57.50999832
C    23.75000000  12.43000031  56.72999954
H    24.14208221  11.96663094  57.63534927
H    19.11000061  12.48000050  58.87000275
H    18.05999947  10.51000023  54.48999786
H    20.51000214  10.67999935  53.81000137
H    22.84000015  11.00000000  54.54999924
H    21.54000092  12.55000019  58.31999969
H    13.35000038  11.87999916  58.43999863
H    24.43000031  12.28999996  55.87999725
H    23.68999863  13.50999928  56.93999863
S    12.67000008  10.65999985  53.77999878
C    10.03000069  10.57000065  54.40000153
C    11.28999901  10.88000107  54.86999893
C    11.64000034  11.23999977  56.20999908
C    10.55999947  11.38000011  57.06999969
C     9.22999954  11.13000011  56.68000031
C     8.14999962  11.17000008  57.61000061
C     6.89000034  10.76000023  57.23999786
C     6.63999987  10.34000015  55.90999985
C     7.62000036  10.40999985  54.94999695
C     8.97000027  10.69000053  55.33000183
C    13.07999992  11.38000011  56.36000061
C    13.73000050  10.98999977  55.15999603
C    15.10000038  10.77000046  55.12000275
C     5.29999971   9.81999969  55.45000076
H     4.78068829  10.44601917  54.72438812
H     9.77000046  10.29999924  53.37999725
H    10.80999947  11.68000031  58.08000183
H     8.38000011  11.36999989  58.64999771
H     6.02999973  10.73999977  57.90999985
H     7.40999985  10.07999992  53.93000031
H    15.55999947  10.60999966  54.15000153
H     4.76999998   9.64999962  56.39999771
H     5.64000034   8.89000034  54.97000122
S    17.05999947  12.61000061  52.81000137
C    19.80999947  12.60000038  52.15999985
C    18.51000023  12.30999947  51.81999969
C    18.12000084  11.67000008  50.59999847
C    19.15999985  11.43000031  49.72000122
C    20.48999977  11.82999992  49.98000336
C    21.55999947  11.65999985  49.06000137
C    22.79000092  12.23999977  49.25000000
C    23.21000099  12.75000000  50.51000214
C    22.21999931  12.77999973  51.46999741
C    20.86000061  12.43999958  51.23000336
C    16.68000031  11.56999969  50.41999817
C    15.95999908  12.15999985  51.49000168
C    14.57999992  12.31999969  51.46999741
C    24.67000008  12.97999954  50.80999756
H    25.01962280  12.30929470  51.59486771
H    20.03999901  13.07000065  53.11000061
H    18.96999931  10.93999958  48.75999832
H    21.42000008  11.33999920  48.02999878
H    23.57000160  12.34000015  48.50000000
H    22.34999847  12.97000027  52.52999878
H    14.13000011  12.69999981  52.38999939
H    25.34000015  13.03999996  49.93999863
H    24.79000092  13.99000072  51.23000336
S    13.63999939  11.00999928  47.84000015
C    10.88999939  10.90000057  48.48999786
C    12.18000031  11.26000023  48.81999969
C    12.46999931  11.76000023  50.13000107
C    11.42000008  12.15000057  50.94999695
C    10.07999992  11.82999992  50.65999985
C     8.93999958  12.03999996  51.50000000
C     7.69999981  11.51000023  51.24000168
C     7.49000025  10.84000015  50.00000000
C     8.52000046  10.77000046  49.09000015
C     9.82999992  11.25000000  49.36999893
C    13.90999985  11.84000015  50.34999847
C    14.65999985  11.42000008  49.22999954
C    16.03999901  11.21999931  49.22000122
C     6.11000013  10.31000042  49.69999695
H     5.49419451  11.04613495  49.18328857
H    10.67999935  10.13000011  47.76000214
H    11.65999985  12.64000034  51.88999939
H     9.06000042  12.61000061  52.42000198
H     6.84000015  11.61000061  51.88999939
H     8.39999962  10.22999954  48.15000153
H    16.69999886  11.03999996  48.36999893
H     5.77000046   9.92999935  50.66999817
H     6.26999950   9.35000038  49.19000244
