96

S    16.13000107  11.77999973  58.80000305
C    18.85000038  11.75000000  58.15000153
C    17.56000137  11.36000061  57.84000015
C    17.28000069  10.92000008  56.51000214
C    18.27000046  10.90999985  55.54000092
C    19.60000038  11.26000023  55.87999725
C    20.69000053  11.13000011  54.97000122
C    21.97000122  11.39999962  55.37000275
C    22.23999977  12.05000019  56.59999847
C    21.25000000  12.02999973  57.56000137
C    19.90999985  11.72000027  57.19999695
C    15.84000015  10.81999969  56.32999802
C    15.10000038  11.23999977  57.45999908
C    13.73000050  11.46999931  57.47000122
C    23.68999863  12.36999989  56.86000061
H    24.21578789  11.68079090  57.52078629
H    19.05999947  12.10999966  59.15000153
H    18.01000023  10.76000023  54.50000000
H    20.48999977  10.81999969  53.95000076
H    22.73999977  11.32999992  54.59999847
H    21.47000122  12.25999928  58.60000229
H    13.23999977  11.92999935  58.31999969
H    24.41999817  12.39999962  56.04000092
H    23.71999931  13.35999966  57.34000397
S    12.60000038  10.54999924  53.82999802
C     9.94000053  10.08999920  54.64000320
C    11.21000099  10.52000046  54.93000031
C    11.56000042  10.93999958  56.25999832
C    10.57999992  11.21999931  57.19999695
C     9.22999954  10.97000027  56.86000061
C     8.18000031  11.16000080  57.80000305
C     6.94000006  10.62000084  57.51999664
C     6.65999985  10.01999950  56.26999664
C     7.67000008   9.70000076  55.38999939
C     8.96000004  10.21999931  55.65999985
C    13.00000000  11.05999947  56.35000229
C    13.73999977  10.77999973  55.17000198
C    15.11000061  10.55999947  55.15999603
C     5.25000000   9.59000015  55.93999863
H     4.81668997  10.32165527  55.25807190
H     9.67000008   9.59000015  53.70999908
H    10.90000057  11.50000000  58.20000076
H     8.45000076  11.59000015  58.75999832
H     6.21000004  10.59999943  58.33000183
H     7.55999994   9.11000061  54.47999954
H    15.60999966  10.57999992  54.19000244
H     4.53000021   9.39000034  56.73999786
H     5.55999994   8.67999935  55.43000031
S    13.12000084   8.67999935  50.93000031
C    10.47000027   8.10000038  51.55000305
C    11.79999924   7.92999983  51.84000015
C    12.23000050   7.21000004  53.00000000
C    11.31000042   6.58999968  53.81999969
C     9.92000008   6.76000023  53.59000397
C     8.92000008   6.10000038  54.36000061
C     7.57999992   6.23000050  54.10999680
C     7.18999958   7.04999971  53.02000046
C     8.13000011   7.59000015  52.15999985
C     9.52999973   7.46000004  52.39999771
C    13.66000080   7.36999989  53.22000122
C    14.23999977   8.18000031  52.21000290
C    15.59000015   8.51000023  52.27000427
C     5.77000046   7.49000025  52.77999878
H     5.32264566   7.04264545  51.89239120
H    10.05000019   8.67999935  50.72999954
H    11.59000015   6.17999983  54.79000092
H     9.26999950   5.38000011  55.10000229
H     6.76000023   5.84000015  54.69999695
H     7.78999996   8.27000046  51.38999939
H    16.06999969   8.88000011  51.36000061
H     5.28999996   7.20000029  53.72000122
H     5.86999989   8.57999992  52.75000000
S    16.88999939   6.84000015  55.63000107
C    19.55999947   7.36000013  54.99000168
C    18.22999954   7.57999992  54.72999954
C    17.76000023   8.34000015  53.61000061
C    18.71999931   8.85000038  52.76000214
C    20.10000038   8.56999969  52.91999817
C    21.09000015   9.10000038  52.04000092
C    22.40999985   8.75000000  52.21000290
C    22.85000038   8.02999973  53.34999847
C    21.91999817   7.59000015  54.26000214
C    20.53999901   7.88999987  54.10999680
C    16.31999969   8.21000004  53.43000031
C    15.71000004   7.39000034  54.40999985
C    14.40999985   6.90999985  54.31000137
C    24.34000015   7.88000011  53.61000061
H    24.76671219   8.37071991  54.48476410
H    19.93999863   6.71999979  55.77999878
H    18.43000031   9.25000000  51.79999924
H    20.72999954   9.85000038  51.33999634
H    23.06999969   9.36999989  51.60999680
H    22.11000061   6.93000031  55.10000229
H    13.92000008   6.28000021  55.04000092
H    24.94999886   8.19999981  52.76000214
H    24.47000122   6.78999996  53.57999802
