96

S    16.84000015  11.97999954  58.86000061
C    19.51000023  11.96000004  58.13000107
C    18.23999977  11.47999954  57.88999939
C    17.86999893  10.93000031  56.62000275
C    18.84000015  10.88000107  55.63999939
C    20.17000008  11.33999920  55.80999756
C    21.24000168  11.14999962  54.88999939
C    22.53999901  11.31000042  55.31000137
C    22.84000015  11.97000027  56.53999710
C    21.83000183  12.23999977  57.42000198
C    20.50000000  11.82999992  57.11999893
C    16.42000008  10.88000107  56.45999908
C    15.75000000  11.42000008  57.57999802
C    14.37000084  11.63000011  57.56999969
C    24.23999977  12.46999931  56.81999969
H    24.77330017  11.95092106  57.61639786
H    19.67000008  12.46999931  59.08000183
H    18.55999947  10.26999950  54.78000259
H    21.11999893  10.80999947  53.86000061
H    23.31000137  10.93999958  54.65000153
H    22.07999992  12.48999977  58.44999695
H    13.89000034  11.90000057  58.50999832
H    24.84000015  12.41000080  55.90000153
H    24.20999908  13.53999996  57.02999878
S    13.22999954  10.57999992  53.93000031
C    10.57000065  10.32999992  54.65000153
C    11.82999992  10.75000000  55.00000000
C    12.17000008  11.23999977  56.30000305
C    11.10000038  11.33999920  57.18000031
C     9.77000046  10.93999958  56.93000031
C     8.65999985  11.13000011  57.80000305
C     7.50000000  10.46000004  57.48000336
C     7.22000027   9.85999966  56.23000336
C     8.25000000   9.85999966  55.31999969
C     9.53999996  10.38000011  55.61999893
C    13.60999966  11.26000023  56.45000076
C    14.32000065  10.81999969  55.31000137
C    15.69000053  10.55999947  55.31000137
C     5.80999947   9.44000053  55.86000061
H     5.59610510   9.68241405  54.81904602
H    10.27999973   9.85999966  53.70999908
H    11.43000031  11.64000034  58.16999817
H     8.93000031  11.65999985  58.70999908
H     6.72999954  10.57999992  58.22999954
H     8.06999969   9.47000027  54.31999969
H    16.14999962  10.07999992  54.45000076
H     5.17000008  10.03999901  56.51000214
H     5.55999994   8.38999939  56.04999924
S    17.00000000  12.35000038  52.70999908
C    19.72999954  12.44999981  52.09000015
C    18.45000076  12.10999966  51.72000122
C    18.09000015  11.63000011  50.43000031
C    19.14999962  11.39999962  49.56999969
C    20.48999977  11.72000027  49.91000366
C    21.51000023  11.72999954  48.92000198
C    22.79000092  12.15999985  49.20000076
C    23.15999985  12.46999931  50.54000092
C    22.18000031  12.56000042  51.50000000
C    20.81999969  12.23000050  51.20999908
C    16.65999985  11.50000000  50.21999741
C    15.93000031  11.94000053  51.36000061
C    14.55999947  12.18000031  51.38000107
C    24.54000092  12.98999977  50.84000015
H    25.07275772  12.35779476  51.55034256
H    19.78000069  12.94000053  53.06999969
H    19.00000000  11.18999958  48.50999832
H    21.17000198  11.51000023  47.90999985
H    23.46999931  12.38000011  48.37999725
H    22.34999847  13.04999924  52.45999908
H    14.11999893  12.43999958  52.34000397
H    25.15999985  13.09999943  49.93999863
H    24.50000000  14.00000000  51.27999878
S    13.42000008  11.07999992  47.71999741
C    10.73999977  10.85999966  48.43000031
C    12.02000046  11.23000050  48.80000305
C    12.41000080  11.79999924  50.05000305
C    11.44000053  12.07999992  50.98999786
C    10.14000034  11.61000061  50.68999863
C     9.13000011  11.61000061  51.70000076
C     7.82000017  11.31000042  51.42000198
C     7.44000006  10.82999992  50.13999939
C     8.39999962  10.67000008  49.16999817
C     9.73999977  11.09000015  49.40999985
C    13.85000038  11.87999916  50.20999908
C    14.53999996  11.46999931  49.03999710
C    15.92000008  11.25000000  49.06000137
C     6.00000000  10.51000023  49.84000397
H     5.62903547  11.07357979  48.98392868
H    10.42000008  10.38000011  47.51999664
H    11.68000031  12.51999950  51.95999908
H     9.39999962  11.94000053  52.70000076
H     7.07000017  11.36000061  52.21000290
H     8.22000027   9.96999931  48.34999847
H    16.46999931  11.05999947  48.13999939
H     5.36999989  10.73999977  50.70999908
H     5.80999947   9.47000027  49.54999924
