96

S    16.47999954  11.61999893  59.00000000
C    19.17000008  11.75000000  58.29000092
C    17.86999893  11.54000092  57.90999985
C    17.46999931  11.00999928  56.63999939
C    18.46999931  10.92000008  55.68000031
C    19.81999969  11.23999977  55.96000290
C    20.81000137  11.13999939  54.93999863
C    22.11000061  11.46999931  55.22999573
C    22.42000198  11.96000004  56.52999878
C    21.51000023  12.05000019  57.55000305
C    20.17000008  11.67000008  57.29000092
C    16.02000046  10.88000107  56.52000046
C    15.32999992  11.16000080  57.71999741
C    13.94000053  11.16000080  57.72999573
C    23.81000137  12.36999989  56.97000122
H    24.27999687  11.71485424  57.70347977
H    19.47000122  11.96000004  59.31999969
H    18.26000023  10.57999992  54.66999817
H    20.48000145  10.75000000  53.97999573
H    22.82999992  11.26999950  54.45000076
H    21.61999893  12.68000031  58.43999863
H    13.43999958  11.44999981  58.64999771
H    24.43000031  12.43999958  56.06999969
H    23.78000069  13.40000057  57.35000229
S    12.89000034  10.13000011  54.05000305
C    10.14999962  10.21999931  54.59000015
C    11.44000053  10.47999954  55.00999832
C    11.76000023  10.95999908  56.31999969
C    10.73999977  11.06999969  57.23999786
C     9.39000034  10.82999992  56.88000107
C     8.34999943  10.90999985  57.84000015
C     7.03999996  10.78999996  57.43999863
C     6.71999979  10.32999992  56.13999939
C     7.73000002  10.21000004  55.20999908
C     9.10000038  10.44000053  55.52000046
C    13.20000076  10.95000076  56.56000137
C    13.93000031  10.54999924  55.41999817
C    15.31999969  10.48999977  55.37000275
C     5.36999989   9.72000027  55.83000183
H     4.95858574  10.20234680  54.94333267
H    10.01999950  10.03000069  53.53000259
H    10.95999908  11.30000019  58.27999878
H     8.47999954  11.10000038  58.89999771
H     6.24000025  10.69000053  58.18000031
H     7.49000025   9.86999989  54.20999908
H    15.77999973  10.22999954  54.43000031
H     4.69000006   9.98999977  56.63999939
H     5.35000038   8.63000011  55.73999786
S    13.32999992   8.38999939  50.90999985
C    10.70000076   7.88000011  51.52999878
C    12.02000046   7.63999987  51.84000015
C    12.39999962   6.94999981  53.02999878
C    11.43000031   6.48999977  53.89999771
C    10.06000042   6.67000008  53.59000397
C     9.02999973   6.30000019  54.51000214
C     7.72000027   6.50000000  54.13999939
C     7.28999996   7.26000023  53.02000046
C     8.30999947   7.73000002  52.22999954
C     9.68999958   7.39000034  52.39999771
C    13.85000038   7.03000021  53.20000076
C    14.42999935   7.83999968  52.18999863
C    15.77999973   8.14000034  52.22999954
C     5.84999990   7.34000015  52.56999969
H     5.69294548   6.64039326  51.74903488
H    10.53999996   8.60000038  50.73999786
H    11.59000015   5.91000032  54.79999924
H     9.28999996   5.79999971  55.44000244
H     6.89000034   6.09000015  54.69999695
H     8.18000031   8.38999939  51.38000107
H    16.14999962   8.73000050  51.38999939
H     5.14999962   7.13999987  53.40000153
H     5.65000010   8.38000011  52.25999832
S    17.09000015   6.51000023  55.63000107
C    19.79999924   7.17999983  55.01999664
C    18.45999908   7.13000011  54.68999863
C    18.02000046   7.82000017  53.50999832
C    18.96000099   8.36000061  52.64999771
C    20.35000038   8.31999969  52.94000244
C    21.35000038   8.85000038  52.06999969
C    22.67999840   8.71000004  52.37999725
C    23.12999916   7.96999979  53.50000000
C    22.19000053   7.48000050  54.38000107
C    20.79999924   7.71000004  54.16999817
C    16.59000015   7.71000004  53.29000092
C    15.97000027   6.98000002  54.34000015
C    14.63999939   6.57000017  54.26000214
C    24.59000015   7.65999985  53.75999832
H    24.90895081   7.97895098  54.75228882
H    20.06999969   6.65999985  55.93000031
H    18.71000099   8.89999962  51.75000000
H    20.95999908   9.23999977  51.13999939
H    23.26999855   9.07999992  51.55000305
H    22.57999802   7.04999971  55.28999710
H    14.15999985   5.89999962  54.95999908
H    25.15000153   8.17000008  52.97999954
H    24.64999962   6.58999968  53.54000092
