96

S    16.95000076  12.02000046  58.75999832
C    19.60000038  12.20999908  57.97000122
C    18.32999992  11.77000046  57.67000198
C    17.97000122  11.18000031  56.40999603
C    18.96999931  11.10999966  55.47000122
C    20.31999969  11.49000072  55.70000076
C    21.34000015  11.39000034  54.71000290
C    22.60999870  11.82000065  55.04000092
C    22.88999939  12.23999977  56.36000061
C    21.91999817  12.56000042  57.28000259
C    20.59999847  12.11999989  56.95999908
C    16.52000046  11.07999992  56.25000000
C    15.88000107  11.46000004  57.45999908
C    14.48999977  11.49000072  57.44999695
C    24.34000015  12.48000050  56.72000122
H    24.59663010  11.96674061  57.64671707
H    19.82999992  12.60000038  58.95000076
H    18.72999954  10.57999992  54.55999756
H    21.07000160  10.97000027  53.75000000
H    23.35000038  11.84999943  54.25000000
H    22.26000023  12.94999981  58.23999786
H    14.11999893  11.63000011  58.46000290
H    24.99000168  12.22000027  55.87999725
H    24.40999985  13.56999969  56.84000015
S    13.27999973  10.77999973  53.81000137
C    10.59999943  10.57999992  54.45999908
C    11.85999966  10.95999908  54.85000229
C    12.27000046  11.35000038  56.17000198
C    11.21999931  11.59000015  57.02999878
C     9.89999962  11.21999931  56.70999908
C     8.80000019  11.35000038  57.60000229
C     7.50999975  11.00000000  57.25000000
C     7.21000004  10.47999954  55.97000122
C     8.22000027  10.36000061  55.04000092
C     9.55000019  10.71000004  55.40999985
C    13.71999931  11.26000023  56.31000137
C    14.42999935  10.85999966  55.14999771
C    15.81999969  10.75000000  55.08999634
C     5.78000021  10.10000038  55.66999817
H     5.21900749  10.65389252  54.91727448
H    10.36999893  10.19999981  53.46000290
H    11.47999954  12.02000046  58.00000000
H     9.10000038  11.77999973  58.54999924
H     6.67000008  11.28999901  57.88000107
H     8.03999996   9.85999966  54.09000015
H    16.36999893  10.72999954  54.15999985
H     5.26999998  10.07999992  56.63999939
H     5.84000015   9.04999924  55.37000275
S    17.18000031  12.46999931  52.61000061
C    19.86999893  12.46999931  52.00000000
C    18.60999870  12.10000038  51.60999680
C    18.29000092  11.69000053  50.27999878
C    19.29999924  11.52999973  49.34000015
C    20.63999939  11.75000000  49.72999954
C    21.70999908  11.64000034  48.80000305
C    22.95000076  12.13000107  49.13000107
C    23.16999817  12.74000072  50.38999939
C    22.18000031  12.82999992  51.33999634
C    20.88999939  12.35000038  51.02000427
C    16.84999847  11.65999985  50.06999969
C    16.13999939  12.11999989  51.22000122
C    14.77000046  12.34000015  51.25999832
C    24.51000023  13.35999966  50.72000122
H    25.10055161  12.69118214  51.34612656
H    20.19000053  12.96000004  52.91999817
H    19.02000046  10.93999958  48.47000122
H    21.50000000  11.44000053  47.75000000
H    23.77000046  12.00000000  48.41999817
H    22.37999916  13.21000004  52.35000229
H    14.39000034  12.75000000  52.18999863
H    25.00000000  13.52000046  49.75999832
H    24.28999901  14.32999992  51.18999863
S    13.64999962  11.10000038  47.63999939
C    10.95999908  11.09000015  48.20999908
C    12.23999977  11.18999958  48.69999695
C    12.61000061  11.69000053  49.99000168
C    11.54999924  12.01000023  50.81999969
C    10.21999931  11.69999981  50.45999908
C     9.11000061  11.90999985  51.32999802
C     7.85000038  11.46999931  51.00999832
C     7.53999996  11.06999969  49.68000031
C     8.57999992  10.82999992  48.80000305
C     9.92000008  11.13000011  49.16999817
C    14.04000092  11.89000034  50.14999771
C    14.75000000  11.51000023  48.97999573
C    16.13000107  11.36000061  48.90999603
C     6.12999964  10.76000023  49.25000000
H     5.72551632  11.41285038  48.47651291
H    10.72999954  10.90999985  47.15999985
H    11.69999981  12.61000061  51.72000122
H     9.28999996  12.39999962  52.28000259
H     7.04999971  11.39999962  51.73999786
H     8.32999992  10.50000000  47.80000305
H    16.62999916  10.95999908  48.02999878
H     5.55000019  10.86999989  50.18000031
H     6.05999994   9.70000076  48.97999573
