96

S    16.75000000  12.10999966  58.81999969
C    19.40999985  12.39999962  58.09999847
C    18.18000031  11.84999943  57.81000137
C    17.93000031  11.13999939  56.59000015
C    18.95000076  10.92000008  55.68999863
C    20.23999977  11.44000053  55.94999695
C    21.35000038  11.10999966  55.11000061
C    22.60000038  11.57999992  55.41999817
C    22.76000023  12.43000031  56.53999710
C    21.71999931  12.76999950  57.36000061
C    20.40999985  12.28000069  57.09999847
C    16.48999977  10.98999977  56.45000076
C    15.71000004  11.44999981  57.54000092
C    14.32999992  11.56999969  57.52999878
C    24.15999985  12.82999992  56.97000122
H    24.50254631  12.08067894  57.68363953
H    19.63000107  12.93000031  59.02999878
H    18.82999992  10.25000000  54.84000397
H    21.30000114  10.26000023  54.43000031
H    23.43000031  11.52999973  54.72000122
H    21.97999954  13.22999954  58.30999756
H    13.76999950  12.02000046  58.34999847
H    24.75000000  12.76999950  56.04000092
H    24.33000183  13.85000038  57.35000229
S    13.35999966  10.14000034  53.96999741
C    10.55999947  10.21999931  54.59999847
C    11.87999916  10.52999973  54.86999893
C    12.18000031  11.03999996  56.17000198
C    11.18000031  11.32999992  57.08000183
C     9.82999992  11.00999928  56.79000092
C     8.82999992  11.23999977  57.77999878
C     7.50999975  11.02000046  57.47000122
C     7.21000004  10.27999973  56.29000092
C     8.19000053   9.88000011  55.40999985
C     9.51000023  10.40999985  55.52999878
C    13.61999989  11.07999992  56.43000031
C    14.37999916  10.55999947  55.35999680
C    15.77000046  10.47000027  55.37000275
C     5.78999996   9.85000038  56.00000000
H     5.28998089  10.59288597  55.37854767
H    10.43000031   9.68000031  53.67000198
H    11.49000072  11.71000004  58.04000092
H     9.17000008  11.67000008  58.72000122
H     6.76000023  11.18000031  58.23999786
H     7.88000011   9.31999969  54.52999878
H    16.34000015  10.11000061  54.52000046
H     5.31000042   9.94000053  56.98999786
H     5.73999977   8.78999996  55.70999908
S    13.52000046   8.30000019  50.96000290
C    10.81999969   7.75000000  51.52999878
C    12.15000057   7.63000011  51.86999893
C    12.56999969   7.05999947  53.11000061
C    11.61000061   6.57000017  53.97999573
C    10.22999954   6.71000004  53.69999695
C     9.19000053   6.30000019  54.59000015
C     7.88000011   6.58999968  54.29000092
C     7.46999979   7.13000011  53.04999924
C     8.46000004   7.40999985  52.14000320
C     9.84000015   7.34000015  52.47000122
C    14.01999950   7.03000021  53.23999786
C    14.65999985   7.73000002  52.18999863
C    15.98999977   8.11999989  52.29999924
C     6.01999998   7.53000021  52.83000183
H     5.48583460   7.00295687  52.03943634
H    10.57999992   8.45000076  50.72999954
H    11.96000004   6.24000025  54.94999695
H     9.34000015   5.78000021  55.54000092
H     7.17999983   6.42000008  55.11000061
H     8.23000050   7.77999973  51.13999939
H    16.54000092   8.64999962  51.52000046
H     5.47999954   7.51999950  53.77999878
H     6.02999973   8.60000038  52.61000061
S    17.21999931   6.63000011  55.75000000
C    19.96000099   7.11999989  55.14999771
C    18.61999893   7.22000027  54.84000397
C    18.20999908   7.82000017  53.61000061
C    19.15999985   8.30999947  52.74000168
C    20.53999901   8.23000050  53.04000092
C    21.57999992   8.71000004  52.18999863
C    22.88000107   8.38000011  52.45999908
C    23.28000069   7.73999977  53.67000198
C    22.32999992   7.32999992  54.56999969
C    20.95999908   7.55000019  54.23999786
C    16.77000046   7.69999981  53.37999725
C    16.09000015   7.04999971  54.43999863
C    14.75999928   6.67000008  54.36999893
C    24.75000000   7.46000004  53.92000198
H    25.15661621   7.90941906  54.82597351
H    20.30999947   6.81999969  56.12999725
H    18.79999924   8.64000034  51.77000046
H    21.40000153   9.13999939  51.20999908
H    23.61999893   8.61999989  51.70000076
H    22.53999901   6.88000011  55.54000092
H    14.32000065   6.14000034  55.21999741
H    25.32999992   7.86999989  53.08000183
H    24.89000130   6.37000036  53.88999939
