96

S    17.13999939  11.82000065  58.74000168
C    19.85000038  11.90000057  57.98999786
C    18.55999947  11.54000092  57.70000076
C    18.15999985  11.16000080  56.38000107
C    19.13999939  11.03000069  55.41999817
C    20.51000214  11.11999989  55.77000046
C    21.54999924  11.00000000  54.80999756
C    22.85000038  11.33999920  55.13999939
C    23.18000031  11.92000008  56.38999939
C    22.20999908  12.09000015  57.36000061
C    20.88999939  11.67000008  57.04000092
C    16.70999908  11.09000015  56.25000000
C    16.01000023  11.46999931  57.42000198
C    14.63000107  11.56999969  57.56000137
C    24.54999924  12.51000023  56.63000107
H    25.12758827  11.89675713  57.32168198
H    20.06999969  12.43999958  58.90999603
H    18.89999962  11.06999969  54.36000061
H    21.38000107  10.80999947  53.75999832
H    23.64000130  11.16000080  54.41999817
H    22.36999893  12.56999969  58.31999969
H    14.11999893  12.00000000  58.41999817
H    25.06000137  12.38999939  55.65999985
H    24.54000092  13.53999996  57.02000046
S    13.50999928  10.36999893  53.88000107
C    10.77000046  10.39000034  54.56999969
C    12.09000015  10.54999924  54.93999863
C    12.50000000  11.06999969  56.20999908
C    11.44999981  11.40999985  57.04000092
C    10.08999920  11.14999962  56.77999878
C     9.02999973  11.39000034  57.70999908
C     7.76999998  10.98000050  57.36000061
C     7.44000006  10.31000042  56.14999771
C     8.38999939  10.26999950  55.15999603
C     9.72000027  10.65999985  55.47999954
C    13.94000053  11.16000080  56.40999603
C    14.60000038  10.72999954  55.22999573
C    15.98000050  10.62999916  55.14999771
C     6.03999996   9.75000000  55.97999954
H     5.45467806  10.42811775  55.35898972
H    10.47999954   9.92000008  53.63999939
H    11.59999943  11.79999924  58.04999924
H     9.23999977  11.80999947  58.68999863
H     7.00000000  11.00999928  58.11999893
H     8.19999981   9.82999992  54.18000031
H    16.45000076  10.10000038  54.33000183
H     5.50000000   9.52999973  56.90000153
H     6.14000034   8.78999996  55.45999908
S    13.22999954   8.43999958  50.97000122
C    10.55999947   7.78999996  51.60999680
C    11.90000057   7.67000008  51.86000061
C    12.38000011   7.00000000  53.02999878
C    11.51000023   6.51000023  53.97999573
C    10.11000061   6.70000029  53.82999802
C     9.10000038   6.25999975  54.72999954
C     7.75000000   6.40999985  54.51000214
C     7.35000038   7.07999992  53.33000183
C     8.27999973   7.51999950  52.41000366
C     9.67000008   7.36000013  52.63000107
C    13.82999992   7.09000015  53.13999939
C    14.44000053   7.92000008  52.15999985
C    15.78999996   8.25000000  52.09999847
C     5.89999962   7.44000006  53.06000137
H     5.55822182   6.96293449  52.14147186
H    10.06999969   8.32999992  50.79999924
H    11.85999966   6.12999964  54.93999863
H     9.51000023   5.96000004  55.68999863
H     7.00999975   6.06999969  55.22999573
H     8.02999973   7.88000011  51.40999603
H    16.11999893   8.89999962  51.30000305
H     5.27999973   7.13000011  53.90999603
H     5.88000011   8.52999973  53.02999878
S    17.09000015   6.76000023  55.56000137
C    19.78999901   7.31999969  54.89999771
C    18.45000076   7.44000006  54.62999725
C    18.02999878   8.05000019  53.40999985
C    18.98999977   8.52999973  52.54000092
C    20.36999893   8.32999992  52.75000000
C    21.31999969   8.56999969  51.72000122
C    22.65000153   8.40999985  52.02999878
C    23.11000061   7.90000010  53.27000046
C    22.18000031   7.55000019  54.22000122
C    20.79000092   7.76999998  54.01000214
C    16.59000015   7.88999987  53.18999863
C    15.97000027   7.16000032  54.22999954
C    14.63999939   6.75000000  54.22999954
C    24.51000023   7.42999983  53.61999893
H    24.96420479   7.84162283  54.52131271
H    20.07999802   6.78999996  55.80999756
H    18.72999954   8.90999985  51.55000305
H    21.01000023   9.15999985  50.86000061
H    23.43000031   8.63000011  51.31000137
H    22.56000137   7.03999996  55.11000061
H    14.14999962   6.21999979  55.04000092
H    25.27000046   7.59999990  52.84999847
H    24.40999985   6.34000015  53.67000198
