96

S    16.61000061  12.10000038  59.19000244
C    19.29999924  12.20000076  58.54000092
C    18.02999878  11.79999924  58.18000031
C    17.69000053  11.11999989  56.95999908
C    18.73999977  10.72999954  56.14999771
C    20.03999901  11.19999981  56.44000244
C    21.07999992  11.00999928  55.48999786
C    22.36999893  11.44999981  55.70000076
C    22.67000008  12.18000031  56.88000107
C    21.65999985  12.51000023  57.75000000
C    20.32999992  12.02999973  57.58999634
C    16.25000000  11.02000046  56.79999924
C    15.52999973  11.47999954  57.93000031
C    14.14999962  11.51999950  58.00000000
C    24.05999947  12.75000000  57.11000061
H    24.57986641  12.23013401  57.91472244
H    19.43000031  12.48999977  59.58000183
H    18.63999939  10.24000072  55.18000031
H    20.88000107  10.55999947  54.52000046
H    23.15000153  11.13999939  55.00999832
H    21.80999947  13.14000034  58.61999893
H    13.66000080  11.68000031  58.95999908
H    24.63999939  12.60000038  56.18999863
H    23.97000122  13.83999920  57.18999863
S    13.17999935  10.21000004  54.34999847
C    10.42000008  10.05000019  54.92000198
C    11.69999981  10.39000034  55.31000137
C    12.01000023  10.88000107  56.62000275
C    10.93000031  11.18999958  57.43000031
C     9.63000011  10.72000027  57.15999985
C     8.48999977  10.98000050  57.97999954
C     7.23000002  10.50000000  57.71999741
C     7.04999971   9.72999954  56.53999710
C     8.07999992   9.59999943  55.63999939
C     9.39999962  10.07999992  55.90000153
C    13.42000008  11.14999962  56.86000061
C    14.17000008  10.67000008  55.75000000
C    15.55999947  10.60999966  55.65000153
C     5.65000010   9.22999954  56.25000000
H     5.26401329   9.85186672  55.44229126
H    10.22999954   9.40999985  54.06999969
H    11.14999962  11.64999962  58.39000320
H     8.80999947  11.51999950  58.87000275
H     6.30999994  10.72999954  58.26000214
H     7.88999987   9.26000023  54.61999893
H    16.05999947  10.22999954  54.77000427
H     4.98000002   9.28999996  57.11000061
H     5.65999985   8.19000053  55.89000320
S    17.06999969  12.10999966  53.15999985
C    19.70999908  12.50000000  52.37999725
C    18.43000031  12.15999985  52.02000046
C    18.02999878  12.00000000  50.65000153
C    19.04999924  12.01000023  49.71000290
C    20.40999985  12.20000076  50.02999878
C    21.51000023  12.15999985  49.12000275
C    22.79000092  12.51000023  49.45000076
C    23.08000183  12.86999893  50.79999924
C    22.06999969  12.86999893  51.72999954
C    20.72000122  12.56999969  51.38999939
C    16.60000038  11.79999924  50.52000046
C    15.97000027  11.84999943  51.79000092
C    14.59000015  11.87000084  51.88999939
C    24.47000122  13.30999947  51.19999695
H    24.79017258  12.73369312  52.06801987
H    19.95000076  12.57999992  53.43999863
H    18.84000015  12.01000023  48.63999939
H    21.18999863  12.02000046  48.09000015
H    23.46999931  12.69000053  48.62999725
H    22.15999985  13.12999916  52.77999878
H    14.09000015  12.13999939  52.81000137
H    25.12000084  13.14000034  50.33000183
H    24.56000137  14.34999943  51.55000305
S    13.45999908  11.32999992  48.09000015
C    10.80999947  10.71000004  48.85000229
C    12.05000019  11.21000099  49.15999985
C    12.35000038  11.51999950  50.52000046
C    11.35000038  11.46000004  51.47999573
C    10.01999950  11.13000011  51.13999939
C     8.97999954  11.10000038  52.11999893
C     7.71000004  10.69000053  51.77999878
C     7.39000034  10.42000008  50.41999817
C     8.38000011  10.51000023  49.47000122
C     9.73999977  10.77999973  49.78000259
C    13.78000069  11.68000031  50.76000214
C    14.47000027  11.51999950  49.52999878
C    15.84000015  11.69000053  49.34999847
C     5.95000029  10.11000061  50.08999634
H     5.60630131  10.56110477  49.15914917
H    10.62000084  10.31999969  47.84999847
H    11.54999924  11.54999924  52.55000305
H     9.22000027  11.47999954  53.11000061
H     6.86999989  10.62000084  52.45999908
H     8.15999985  10.25000000  48.43000031
H    16.42000008  11.64000034  48.43000031
H     5.27999973  10.40999985  50.90000153
H     5.93999958   9.02000046  49.95999908
