96

S    16.93000031  12.15999985  58.69999695
C    19.65999985  12.15000057  58.13999939
C    18.38000107  11.80999947  57.74000168
C    18.04000092  11.23000050  56.47999573
C    19.05999947  11.03000069  55.56000137
C    20.39999962  11.35000038  55.89000320
C    21.47000122  11.35000038  54.93999863
C    22.72999954  11.80999947  55.22999573
C    22.96999931  12.25999928  56.56000137
C    21.98999786  12.34000015  57.51999664
C    20.68000031  11.87999916  57.19999695
C    16.61000061  11.00000000  56.31000137
C    15.88999939  11.54000092  57.39999771
C    14.51000023  11.72999954  57.47000122
C    24.38999939  12.67000008  56.88999939
H    24.90403938  11.91321754  57.48257446
H    19.82999992  12.71999931  59.03999710
H    18.79999924  10.75000000  54.54999924
H    21.27000046  11.13000011  53.89999771
H    23.52999878  11.67000008  54.52000046
H    22.13999939  12.92000008  58.43000031
H    14.06000042  12.02000046  58.40999985
H    24.89000130  12.76000023  55.91999817
H    24.44999886  13.64999962  57.36999893
S    13.47000027  10.72000027  53.81000137
C    10.72999954  10.57999992  54.43999863
C    12.02000046  10.90999985  54.80999756
C    12.38999939  11.44999981  56.09000397
C    11.31999969  11.64999962  56.93999863
C     9.96000004  11.50000000  56.56999969
C     8.89999962  11.79999924  57.47000122
C     7.59000015  11.50000000  57.16999817
C     7.26000023  10.85000038  55.94999695
C     8.27999973  10.57999992  55.06999969
C     9.65999985  10.84000015  55.31999969
C    13.82999992  11.46000004  56.27999878
C    14.55999947  10.90999985  55.19000244
C    15.90000057  10.55999947  55.19000244
C     5.82999992  10.36999893  55.84999847
H     5.31906319  10.88093662  55.03391647
H    10.57999992  10.13000011  53.46000290
H    11.59000015  11.87999916  57.97000122
H     9.27999973  12.03999996  58.46000290
H     6.80999994  11.69000053  57.90999985
H     8.00000000  10.14999962  54.10999680
H    16.31999969  10.06000042  54.31999969
H     5.40000010  10.34000015  56.86000061
H     5.88000011   9.32999992  55.50000000
S    17.30999947  12.23999977  52.65999603
C    20.03999901  12.48999977  51.88999939
C    18.72999954  12.15999985  51.59999847
C    18.30000114  11.90000057  50.26000214
C    19.32999992  11.73999977  49.36000061
C    20.69000053  12.06999969  49.61000061
C    21.71999931  11.90999985  48.63999939
C    23.00000000  12.23999977  49.02000046
C    23.38000107  12.79000092  50.27000046
C    22.39999962  12.92000008  51.23000336
C    21.07000160  12.53999901  50.90999985
C    16.86000061  11.77000046  50.08999634
C    16.18999863  12.13000107  51.29000092
C    14.81999969  12.32999992  51.33999634
C    24.82999992  13.04999924  50.59999847
H    25.29031754  12.31349182  51.25860596
H    20.29999924  13.07999992  52.77000046
H    19.06999969  11.51000023  48.33000183
H    21.50000000  11.67000008  47.60000229
H    23.84000015  12.05999947  48.34999847
H    22.70000076  13.20000076  52.22999954
H    14.37000084  12.81000042  52.19999695
H    25.42000008  13.17000008  49.68000031
H    24.82000160  13.96999931  51.19999695
S    13.57999992  11.17000008  47.71999741
C    10.85999966  11.26999950  48.50999832
C    12.18999958  11.49000072  48.77999878
C    12.63000011  11.87999916  50.07999802
C    11.65999985  12.13000107  51.04000092
C    10.29000092  12.00000000  50.70999908
C     9.30999947  12.15999985  51.72999954
C     7.96999979  11.97000027  51.44000244
C     7.51999950  11.46000004  50.20000076
C     8.43999958  11.32999992  49.18000031
C     9.81999969  11.50000000  49.45000076
C    14.07999992  11.90999985  50.21999741
C    14.73000050  11.54000092  49.02000046
C    16.11999893  11.46999931  48.94000244
C     6.05999994  11.05999947  50.15999603
H     5.57562733  11.44464779  49.26248169
H    10.48999977  10.95000076  47.52999878
H    12.05000019  12.31999969  52.02999878
H     9.71000004  12.53000069  52.67000198
H     7.22000027  12.13999939  52.21000290
H     8.23999977  10.93999958  48.18999863
H    16.55999947  11.30000019  47.97000122
H     5.58000040  11.52999973  51.03000259
H     5.95000029   9.96999931  50.19000244
