96

S    16.44000053  11.69000053  58.68000031
C    19.12999916  11.85999966  57.83000183
C    17.81999969  11.47999954  57.58999634
C    17.43000031  10.90999985  56.33999634
C    18.38999939  10.75000000  55.35999680
C    19.73999977  11.11999989  55.56999969
C    20.76000023  10.95000076  54.59000015
C    22.06999969  11.13000011  54.98000336
C    22.44999886  11.56000042  56.26999664
C    21.48999977  11.77999973  57.22999954
C    20.12000084  11.65999985  56.84000015
C    15.98999977  11.03999996  56.12999725
C    15.32999992  11.44999981  57.30999756
C    13.94000053  11.52999973  57.34000397
C    23.85999870  12.05000019  56.53999710
H    24.42332649  11.40823555  57.21741867
H    19.42000008  12.18000031  58.82999802
H    18.20000076  10.31000042  54.38000107
H    20.43999863  10.80999947  53.55999756
H    22.77000046  11.28999901  54.16999817
H    21.64999962  11.97000027  58.29000092
H    13.45000076  11.84999943  58.26000214
H    24.40000153  12.13000107  55.59000015
H    23.85000038  13.07999992  56.91999817
S    12.76999950  10.27999973  53.69999695
C    10.10000038  10.14000034  54.56999969
C    11.39000034  10.59999943  54.75999832
C    11.76000023  11.02000046  56.07999802
C    10.80000019  11.21000099  57.05999756
C     9.44000053  10.86999989  56.86999893
C     8.40999985  10.92000008  57.84999847
C     7.11000013  10.62999916  57.50000000
C     6.78999996  10.18000031  56.18999863
C     7.76999998  10.03000069  55.24000168
C     9.11999989  10.34999943  55.56999969
C    13.20000076  11.13000011  56.22000122
C    13.85000038  10.78999996  55.00000000
C    15.22999954  10.62999916  55.02999878
C     5.35000038   9.78999996  55.90999985
H     4.85221004  10.40868187  55.16331482
H     9.77000046   9.75000000  53.61000061
H    10.98999977  11.39999962  58.11000061
H     8.56999969  11.23000050  58.88000107
H     6.28999996  10.59999943  58.20999908
H     7.60999966   9.70000076  54.20999908
H    15.88000107  10.24000072  54.25000000
H     4.79999971   9.85000038  56.84999847
H     5.26000023   8.73999977  55.59000015
S    13.45000076   8.28999996  50.94999695
C    10.73999977   7.76000023  51.56000137
C    12.06999969   7.57000017  51.81999969
C    12.51000023   6.93000031  53.02000046
C    11.54999924   6.38000011  53.85000229
C    10.15999985   6.48999977  53.62999725
C     9.11999989   5.92999983  54.43000031
C     7.78999996   6.17999983  54.20000076
C     7.40999985   7.03999996  53.13999939
C     8.38999939   7.51999950  52.29000092
C     9.77000046   7.20000029  52.43999863
C    13.92000008   7.17000008  53.30999756
C    14.56999969   7.83999968  52.25000000
C    15.90000057   8.26000023  52.22999954
C     5.98999977   7.36999989  52.76000214
H     5.60625315   6.92229509  51.84326935
H    10.39000034   8.47000027  50.80999756
H    11.90999985   5.78000021  54.68000031
H     9.47000027   5.36000013  55.28999710
H     7.05999947   5.64000034  54.79999924
H     8.15999985   8.22000027  51.50000000
H    16.28000069   8.76000023  51.35000229
H     5.40000010   7.00999975  53.61999893
H     5.80999947   8.45000076  52.76000214
S    17.19000053   6.63999987  55.63999939
C    19.90999985   7.21000004  54.92000198
C    18.54999924   7.34000015  54.72999954
C    18.04999924   8.00000000  53.55999756
C    19.00000000   8.42000008  52.63999939
C    20.39999962   8.30000019  52.77000046
C    21.40999985   8.94999981  52.01000214
C    22.77000046   8.89000034  52.22000122
C    23.21000099   8.36999989  53.46000290
C    22.23999977   7.90000010  54.31999969
C    20.86000061   7.73999977  54.01000214
C    16.61000061   7.92000008  53.39000320
C    16.01000023   7.16000032  54.41999817
C    14.65999985   6.81999969  54.45000076
C    24.59000015   8.76000023  53.95999908
H    24.95331764   8.04048920  54.69375992
H    20.32999992   6.71000004  55.79000092
H    18.59000015   8.73999977  51.68000031
H    21.11999893   9.70000076  51.27999878
H    23.50000000   9.51000023  51.70000076
H    22.65999985   7.57999992  55.27000046
H    14.22000027   6.25000000  55.27000046
H    24.64999962   9.78999996  54.33000183
H    25.38000107   8.71999931  53.20999908
