96

S    17.13999939  12.42000008  58.79000092
C    19.78999901  12.65999985  58.00000000
C    18.47999954  12.41000080  57.63999939
C    18.12999916  11.72999954  56.43000031
C    19.11000061  11.39000034  55.52000046
C    20.45999908  11.56000042  55.90999985
C    21.48999977  11.39000034  54.94999695
C    22.82999992  11.51999950  55.25000000
C    23.19999886  12.10000038  56.50000000
C    22.20999908  12.41000080  57.39999771
C    20.81999969  12.20999908  57.14000320
C    16.69000053  11.50000000  56.35000229
C    16.01000023  11.87999916  57.52999878
C    14.61999989  11.97999954  57.57999802
C    24.61999893  12.53000069  56.77000046
H    24.99686623  11.76204681  57.44551468
H    20.09000015  13.17999935  58.90999603
H    18.85000038  11.14999962  54.48999786
H    21.18999863  11.33999920  53.90999603
H    23.54000092  11.51999950  54.43999863
H    22.60000038  12.97000027  58.23999786
H    14.19999981  12.17000008  58.55999756
H    25.20000076  12.64000034  55.84999847
H    24.64999962  13.52000046  57.25999832
S    13.50999928  11.03000069  53.88000107
C    10.80000019  10.85999966  54.62999725
C    12.10999966  11.13000011  54.95999908
C    12.44999981  11.51999950  56.30000305
C    11.44999981  11.73999977  57.22999954
C    10.11000061  11.46000004  56.88000107
C     9.09000015  11.46999931  57.88000107
C     7.78999996  11.10000038  57.60000229
C     7.44000006  10.59999943  56.31999969
C     8.38999939  10.62999916  55.33000183
C     9.73999977  11.00000000  55.56999969
C    13.89000034  11.61000061  56.44000244
C    14.59000015  11.31000042  55.25000000
C    15.98000050  11.23000050  55.18000031
C     5.98000002  10.25000000  56.10000229
H     5.62445927  10.71931362  55.18270493
H    10.70000076  10.44999981  53.62999725
H    11.68000031  12.02999973  58.26000214
H     9.31999969  11.77000046  58.88999939
H     7.00000000  11.11999989  58.34999847
H     8.19000053  10.14000034  54.38000107
H    16.44000053  11.05000019  54.20999908
H     5.38999987  10.39000034  57.01000214
H     6.09000015   9.18000031  55.90999985
S    13.28999996   8.98999977  51.07999802
C    10.60999966   8.42000008  51.60999680
C    11.92999935   8.34000015  52.01000214
C    12.38999939   7.64999962  53.18000031
C    11.44999981   7.00999975  53.96999741
C    10.07999992   7.09999990  53.66000366
C     9.04999924   6.61000013  54.51000214
C     7.73000002   6.76000023  54.16999817
C     7.31999969   7.36999989  52.95999908
C     8.28999996   7.95000029  52.15999985
C     9.67000008   7.78999996  52.45999908
C    13.83999920   7.67000008  53.33000183
C    14.45000076   8.43999958  52.29999924
C    15.78999996   8.80000019  52.30999756
C     5.91000032   7.59999990  52.48000336
H     5.51832104   7.03740644  51.63254929
H    10.14999962   9.03999996  50.84999847
H    11.68000031   6.44999981  54.86999893
H     9.39000034   6.17000008  55.45000076
H     6.80999994   6.58999968  54.72000122
H     8.06999969   8.43000031  51.20999908
H    16.15999985   9.52999973  51.59999847
H     5.33999968   7.46999979  53.40000153
H     5.88999987   8.65999985  52.18000031
S    17.10000038   6.96000004  55.68000031
C    19.70000076   7.53999996  55.08999634
C    18.38000107   7.82999992  54.80999756
C    17.97999954   8.48999977  53.61000061
C    18.93000031   8.96000004  52.72999573
C    20.29000092   8.80000019  53.08000183
C    21.30000114   9.18000031  52.15000153
C    22.63999939   9.02000046  52.39999771
C    23.02999878   8.28999996  53.54999924
C    22.10000038   7.90000010  54.48999786
C    20.71000099   8.11999989  54.27999878
C    16.54000092   8.39999962  53.41999817
C    15.98999977   7.55000019  54.41999817
C    14.65999985   7.16000032  54.33000183
C    24.50000000   7.96000004  53.69999695
H    24.98259163   8.46388340  54.53743744
H    20.10000038   6.86999989  55.84000015
H    18.68999863   9.26000023  51.70999908
H    21.01000023   9.71000004  51.25000000
H    23.43000031   9.46000004  51.79000092
H    22.44999886   7.36999989  55.37000275
H    14.21000004   6.63000011  55.17000198
H    24.96999931   8.38000011  52.80000305
H    24.70000076   6.90000010  53.54999924
