96

S    16.94000053  11.98999977  58.68999863
C    19.60000038  12.32999992  57.90999985
C    18.37000084  11.77999973  57.65999603
C    18.02000046  11.18999958  56.39999771
C    19.04000092  11.06999969  55.45999908
C    20.35000038  11.51999950  55.70000076
C    21.42000008  11.17000008  54.82999802
C    22.73999977  11.35000038  55.19000244
C    23.01000214  12.11999989  56.35000229
C    22.01000023  12.44999981  57.22000122
C    20.63999939  12.11999989  56.97000122
C    16.59000015  10.97000027  56.27999878
C    15.85999966  11.46999931  57.38999939
C    14.47999954  11.67000008  57.42000198
C    24.40000153  12.58999920  56.72000122
H    24.91037750  11.98747253  57.47138596
H    19.81999969  12.77999973  58.87000275
H    18.88000107  10.44000053  54.59000015
H    21.27000046  10.64000034  53.88999939
H    23.51000023  10.97000027  54.52000046
H    22.25000000  12.92000008  58.16999817
H    13.96999931  11.76000023  58.36999893
H    24.99000168  12.69000053  55.79999924
H    24.20000076  13.63999939  56.98999786
S    13.35000038  10.39999962  53.81000137
C    10.65999985  10.39000034  54.40999985
C    11.92000008  10.78999996  54.78000259
C    12.34000015  11.31000042  56.04000092
C    11.38000011  11.39000034  57.04000092
C    10.06000042  10.97000027  56.70999908
C     9.02000046  11.06999969  57.68000031
C     7.68000031  10.90999985  57.39999771
C     7.40999985  10.21999931  56.19999695
C     8.34000015  10.01000023  55.20000076
C     9.67000008  10.47999954  55.41999817
C    13.78000069  11.43000031  56.24000168
C    14.45000076  10.93999958  55.08999634
C    15.80999947  10.65000057  55.15999603
C     5.96000004   9.89000034  55.94999695
H     5.49851131  10.33728981  55.06962204
H    10.39000034  10.05000019  53.40999985
H    11.69999981  11.56999969  58.06000137
H     9.19000053  11.49000072  58.67000198
H     6.91999960  11.26999950  58.09000015
H     8.11999989   9.68999958  54.18000031
H    16.26000023  10.42000008  54.20000076
H     5.46000004  10.24000072  56.86999893
H     5.88000011   8.80000019  56.04000092
S    13.50999928   8.36999989  50.90000153
C    10.88999939   7.96999979  51.53999710
C    12.20000076   7.65999985  51.84999847
C    12.58999920   7.09999990  53.11999893
C    11.59999943   6.65999985  53.96999741
C    10.24000072   6.80000019  53.60000229
C     9.17000008   6.32999992  54.41999817
C     7.86999989   6.70000029  54.15999985
C     7.51999950   7.40999985  52.98999786
C     8.50000000   7.75000000  52.09000015
C     9.86999989   7.46999979  52.37999725
C    14.01999950   7.30000019  53.29000092
C    14.63999939   8.00000000  52.21000290
C    15.98999977   8.30999947  52.21000290
C     6.06999969   7.79999971  52.77000046
H     5.63483906   7.17222595  51.99241638
H    10.65000057   8.60000038  50.68999863
H    11.85999966   6.01999998  54.80999756
H     9.43000031   5.86999989  55.35999680
H     7.11999989   6.51999998  54.93000031
H     8.30000019   8.27999973  51.17000198
H    16.45000076   8.93000031  51.45000076
H     5.42999983   7.86999989  53.64999771
H     6.21000004   8.84000015  52.44999695
S    17.28999901   6.71999979  55.63000107
C    19.97999954   7.26000023  55.07999802
C    18.65999985   7.36000013  54.71000290
C    18.20999908   7.88999987  53.44999695
C    19.11000061   8.30999947  52.50000000
C    20.48000145   8.26000023  52.84999847
C    21.50000000   8.80000019  52.02000046
C    22.84000015   8.76000023  52.31999969
C    23.28000069   7.95000029  53.40999985
C    22.30999947   7.53000021  54.29999924
C    20.90999985   7.69000006  54.10999680
C    16.76000023   7.92999983  53.31999969
C    16.14999962   7.17000008  54.34999847
C    14.78999996   6.90000010  54.38000107
C    24.75000000   7.69000006  53.61999893
H    25.14837456   8.01723671  54.58037186
H    20.31999969   6.78999996  56.00000000
H    18.90999985   8.78999996  51.53999710
H    21.14999962   9.26000023  51.10000229
H    23.61000061   9.03999996  51.60999680
H    22.67999840   7.20000029  55.27000046
H    14.40999985   6.28000021  55.19000244
H    25.23999977   8.10000038  52.72999573
H    24.99000168   6.63000011  53.52000427
