96

S    16.90000153  12.31999969  58.94000244
C    19.56999969  12.42000008  58.22000122
C    18.29000092  12.05000019  57.87000275
C    17.93000031  11.46999931  56.60999680
C    18.96999931  11.28000069  55.72000122
C    20.31999969  11.61000061  55.98999786
C    21.32999802  11.47999954  55.00000000
C    22.63000107  11.71000004  55.38000107
C    22.93999863  12.32999992  56.63000107
C    21.91999817  12.69999981  57.48000336
C    20.59000015  12.28000069  57.23999786
C    16.48999977  11.26999950  56.53999710
C    15.78999996  11.69000053  57.70000076
C    14.42000008  11.89000034  57.60000229
C    24.37999916  12.56999969  57.02000046
H    24.78684235  11.89906502  57.77658844
H    19.96999931  12.84000015  59.13999939
H    18.82999992  10.76000023  54.77000427
H    21.07999992  11.13999939  53.99000168
H    23.42000008  11.26000023  54.79999924
H    22.11999893  13.21000004  58.41999817
H    13.88000011  12.10000038  58.52000427
H    24.94999886  12.68000031  56.09000397
H    24.37999916  13.60999966  57.37999725
S    13.38000107  10.39000034  54.05000305
C    10.64000034  10.53999996  54.54999924
C    11.92000008  10.81999969  54.95999908
C    12.25999928  11.32999992  56.25999832
C    11.25000000  11.64000034  57.15999985
C     9.92000008  11.31999969  56.77999878
C     8.85999966  11.56999969  57.70000076
C     7.59000015  11.11999989  57.41000366
C     7.30999994  10.47000027  56.18000031
C     8.30999947  10.19999981  55.27999878
C     9.61999989  10.71000004  55.52000046
C    13.68999958  11.40999985  56.50000000
C    14.40999985  10.88000107  55.40000153
C    15.78999996  10.77000046  55.44000244
C     5.92000008   9.96999931  55.89000320
H     5.38751602  10.59478188  55.17292023
H    10.31000042  10.06999969  53.61999893
H    11.52999973  12.13000107  58.09000015
H     9.09000015  12.02999973  58.64999771
H     6.75000000  11.18999958  58.09000015
H     8.23000050   9.57999992  54.38999939
H    16.31000137  10.22999954  54.65000153
H     5.44000053   9.96000004  56.88000107
H     6.03999996   8.97000027  55.44000244
S    17.06999969  12.48999977  52.91999817
C    19.80999947  12.61000061  52.16999817
C    18.51000023  12.20999908  51.91999817
C    18.15999985  11.71000004  50.63000107
C    19.15999985  11.46000004  49.69999695
C    20.50000000  11.82999992  49.95999908
C    21.56999969  11.57999992  49.05000305
C    22.85000038  12.00000000  49.29000092
C    23.16999817  12.56000042  50.54999924
C    22.20000076  12.74000072  51.51000214
C    20.85000038  12.36999989  51.24000168
C    16.72000122  11.57999992  50.43000031
C    16.02000046  12.02000046  51.56999969
C    14.63000107  12.07999992  51.58000183
C    24.61999893  12.86000061  50.86000061
H    24.95537376  12.18211555  51.64491653
H    20.10000038  13.20000076  53.04000092
H    18.90999985  10.97000027  48.75999832
H    21.35000038  11.03999996  48.13000107
H    23.68999863  11.69000053  48.67000198
H    22.30999947  13.32999992  52.41000366
H    13.99000072  12.55000019  52.32999802
H    25.19000053  12.71999931  49.93000031
H    24.75000000  13.89999962  51.19999695
S    13.52000046  10.47999954  48.13000107
C    10.80999947  10.72000027  48.72000122
C    12.11999989  10.93999958  49.10999680
C    12.48000050  11.40999985  50.40999985
C    11.49000072  11.61000061  51.35000229
C    10.13000011  11.39000034  51.00000000
C     9.07999992  11.54000092  51.93999863
C     7.82000017  11.17000008  51.52999878
C     7.48000050  10.55999947  50.28999710
C     8.51000023  10.36000061  49.38999939
C     9.80000019  10.86999989  49.69999695
C    13.92000008  11.61999893  50.47000122
C    14.63000107  11.13000011  49.34999847
C    16.02000046  11.03999996  49.34000015
C     6.10000038  10.15999985  49.82999802
H     5.73670578  10.75124359  48.98943329
H    10.47000027  10.39000034  47.74000168
H    11.77999973  12.06999969  52.29000092
H     9.30999947  12.10999966  52.83000183
H     6.97000027  11.38000011  52.16999817
H     8.36000061   9.76000023  48.48999786
H    16.54000092  10.73999977  48.43000031
H     5.47999954  10.34999943  50.70999908
H     6.01999998   9.07999992  49.61000061
