96

S    16.54999924  12.13000107  58.66000366
C    19.22000122  12.39999962  58.01000214
C    17.97999954  11.96000004  57.63000107
C    17.69000053  11.46000004  56.31999969
C    18.71999931  11.26000023  55.40999985
C    20.00999832  11.72000027  55.75000000
C    21.11000061  11.47999954  54.86999893
C    22.34000015  11.90999985  55.28999710
C    22.60999870  12.64999962  56.46999741
C    21.53000069  12.86999893  57.29999924
C    20.26000023  12.28000069  57.04999924
C    16.25000000  11.42000008  56.10000229
C    15.52000046  11.63000011  57.29000092
C    14.14000034  11.65999985  57.36000061
C    23.98999977  13.15999985  56.81000137
H    24.49563408  12.41935349  57.42958069
H    19.17000008  13.02999973  58.88999939
H    18.55999947  10.80999947  54.43000031
H    21.01000023  10.82999992  54.00000000
H    23.15000153  11.84999943  54.56999969
H    21.57999992  13.34000015  58.27999878
H    13.61999989  11.71000004  58.30999756
H    24.44000053  13.30000019  55.81999969
H    23.97000122  14.11000061  57.35000229
S    13.00000000  10.53999996  53.70999908
C    10.32999992  10.22999954  54.58000183
C    11.57999992  10.78999996  54.72999954
C    11.97000027  11.21000099  56.04000092
C    11.03999996  11.31000042  57.06999969
C     9.68999958  11.00999928  56.77999878
C     8.64000034  11.21999931  57.72999573
C     7.30000019  11.07999992  57.45999908
C     6.94000006  10.47000027  56.23000336
C     7.90000010  10.26000023  55.27000046
C     9.28999996  10.47999954  55.51000214
C    13.40000057  11.44999981  56.18999863
C    14.07999992  11.14999962  54.98000336
C    15.47000027  11.13000011  54.98000336
C     5.51999998  10.03000069  55.96000290
H     5.13542652  10.56412983  55.09114838
H     9.98999977   9.82999992  53.61999893
H    11.36999989  11.54999924  58.08000183
H     8.93000031  11.68000031  58.67000198
H     6.52999973  11.35000038  58.18000031
H     7.59999990   9.80000019  54.34000015
H    16.00000000  10.62999916  54.16999817
H     4.90000010  10.06000042  56.86999893
H     5.63000011   8.94999981  55.79999924
S    13.63000011   8.52000046  50.84999847
C    10.95999908   8.19000053  51.52000046
C    12.27000046   7.92000008  51.83000183
C    12.76000023   7.39000034  53.06999969
C    11.84999943   6.91999960  54.00000000
C    10.47999954   7.03999996  53.66000366
C     9.53999996   6.54999971  54.61999893
C     8.19999981   6.67000008  54.34000015
C     7.76000023   7.32999992  53.15999985
C     8.63000011   7.76999998  52.18999863
C    10.03000069   7.67000008  52.45999908
C    14.19000053   7.55000019  53.20999908
C    14.81999969   8.22000027  52.12999725
C    16.17000008   8.55000019  52.05999756
C     6.30999994   7.64999962  52.90000153
H     5.84226513   7.15391731  52.04957581
H    10.85999966   9.02000046  50.83000183
H    12.10999966   6.60000038  55.00999832
H     9.96999931   6.11000013  55.51000214
H     7.39000034   6.35999966  55.00000000
H     8.32999992   8.32999992  51.31000137
H    16.56999969   9.00000000  51.16000366
H     5.82999992   7.46000004  53.87000275
H     6.38999987   8.73999977  52.77999878
S    17.50000000   7.22000027  55.58000183
C    20.15999985   7.44999981  54.89999771
C    18.85000038   7.67000008  54.52999878
C    18.38999939   8.28999996  53.31999969
C    19.37999916   8.65999985  52.43000031
C    20.76000023   8.47000027  52.69000244
C    21.77000046   8.93000031  51.81000137
C    23.08000183   8.89999962  52.23999786
C    23.39999962   8.67000008  53.61000061
C    22.44999886   8.15999985  54.45000076
C    21.11999893   7.94000053  53.97999573
C    16.95000076   8.19999981  53.16999817
C    16.32999992   7.59999990  54.29999924
C    14.98999977   7.23000002  54.31999969
C    24.80999947   8.97999954  54.06000137
H    25.20946503   8.24526691  54.75906754
H    20.48999977   7.17000008  55.90000153
H    19.11999893   9.10000038  51.46999741
H    21.54000092   9.48999977  50.90999985
H    23.75000000   9.34000015  51.51000214
H    22.55000114   7.82000017  55.47999954
H    14.53999996   6.76000023  55.19000244
H    24.86000061   9.96000004  54.54000092
H    25.48000145   9.02000046  53.18999863
