96

S    17.19000053  12.27000046  58.68000031
C    19.86999893  12.23000050  57.91999817
C    18.55999947  11.92999935  57.60000229
C    18.18000031  11.36999989  56.33999634
C    19.12999916  11.23000050  55.34999847
C    20.48000145  11.59000015  55.61000061
C    21.57999992  11.54000092  54.69999695
C    22.82999992  12.06999969  54.92000198
C    23.19000053  12.43999958  56.24000168
C    22.20999908  12.38000011  57.21000290
C    20.85000038  12.09000015  56.90000153
C    16.73999977  11.19999981  56.29000092
C    16.06999969  11.63000011  57.45999908
C    14.68999958  11.51000023  57.62000275
C    24.56999969  12.90999985  56.65000153
H    24.97462082  12.36340618  57.50183487
H    20.06999969  12.76000023  58.83999634
H    18.88000107  10.84000015  54.36000061
H    21.45000076  10.95000076  53.80000305
H    23.51000023  11.85999966  54.09999847
H    22.37999916  12.55000019  58.27000046
H    14.23999977  12.00000000  58.47000122
H    25.19000053  12.79000092  55.75000000
H    24.59000015  14.01000023  56.66999817
S    13.56999969  10.62999916  53.90999603
C    10.86999989  10.59000015  54.51000214
C    12.15000057  10.80999947  54.97000122
C    12.48999977  11.11999989  56.32999802
C    11.44000053  11.54000092  57.11999893
C    10.11000061  11.33999920  56.70999908
C     9.00000000  11.42000008  57.61000061
C     7.75000000  11.05999947  57.15999985
C     7.46000004  10.59000015  55.86000061
C     8.51000023  10.36999893  55.00000000
C     9.78999996  10.84000015  55.40000153
C    13.94000053  11.13000011  56.50000000
C    14.63999939  10.73999977  55.31999969
C    16.02000046  10.77000046  55.17000198
C     6.07999992  10.07999992  55.51000214
H     5.53350067  10.85361671  54.97060013
H    10.62999916  10.08999920  53.57999802
H    11.65999985  11.77999973  58.15999985
H     9.11999989  11.71000004  58.64999771
H     6.90000010  11.18999958  57.83000183
H     8.38999939   9.88000011  54.02999878
H    16.52000046  10.60999966  54.22000122
H     5.47999954   9.89000034  56.39999771
H     6.14000034   9.10000038  55.01999664
S    17.46999931  12.36999989  52.64999771
C    20.17000008  12.74000072  51.93999863
C    18.89000130  12.38999939  51.59000015
C    18.52000046  12.02000046  50.25000000
C    19.51000023  12.02000046  49.27999878
C    20.86000061  12.28000069  49.61999893
C    21.87000084  12.20999908  48.61999893
C    23.16999817  12.39999962  49.02999878
C    23.54000092  12.77999973  50.34000015
C    22.55000114  12.92000008  51.29000092
C    21.19999886  12.60000038  50.97999954
C    17.07999992  11.87000084  50.08999634
C    16.36000061  12.06999969  51.30000305
C    14.98000050  12.15000057  51.35000229
C    24.97999954  13.15999985  50.65000153
H    25.42317772  12.46663952  51.36480713
H    20.32999992  13.12999916  52.94000244
H    19.19999886  11.95000076  48.23999786
H    21.63999939  12.02000046  47.56999969
H    23.97999954  12.42000008  48.29999924
H    22.75000000  13.23999977  52.30999756
H    14.42000008  12.46000099  52.22000122
H    25.59000015  13.26000023  49.73999786
H    24.89000130  14.18000031  51.03000259
S    13.89999962  11.51000023  47.64999771
C    11.13999939  11.25000000  48.30999756
C    12.43999958  11.56000042  48.66000366
C    12.81999969  11.94000053  49.98000336
C    11.80999947  12.05999947  50.91999817
C    10.46000004  11.79999924  50.61999893
C     9.40999985  11.84000015  51.59000015
C     8.11999989  11.56000042  51.20999908
C     7.79999971  10.98999977  49.94999695
C     8.80000019  10.93000031  49.00000000
C    10.13000011  11.33999920  49.29999924
C    14.27000046  12.02999973  50.14999771
C    15.03999901  11.79999924  48.97999573
C    16.42000008  11.71000004  48.87000275
C     6.46000004  10.31999969  49.72999954
H     5.77631140  10.99656677  49.21723557
H    10.70000076  10.88000107  47.38999939
H    12.05000019  12.03999996  51.97999954
H     9.61000061  12.01000023  52.63999939
H     7.40999985  11.59000015  52.02999878
H     8.51000023  10.39000034  48.09999847
H    16.87999916  11.43000031  47.93000031
H     6.05999994  10.11000061  50.72999954
H     6.52999973   9.31999969  49.27000046
