96

S    16.54000092  11.90000057  58.79000092
C    19.20999908  12.43000031  58.09000015
C    17.94999886  12.01000023  57.71999741
C    17.65999985  11.46000004  56.44000244
C    18.68999863  11.23000050  55.54000092
C    20.00000000  11.59999943  55.93999863
C    21.12999916  11.23000050  55.15999603
C    22.43000031  11.57999992  55.41999817
C    22.67999840  12.23999977  56.65000153
C    21.64999962  12.48999977  57.52999878
C    20.29000092  12.23000050  57.19999695
C    16.21999931  11.36000061  56.23000336
C    15.47000027  11.54999924  57.42000198
C    14.07999992  11.61000061  57.50000000
C    24.06999969  12.65999985  57.06999969
H    24.65967178  11.91402912  57.60283661
H    19.43000031  12.72999954  59.10999680
H    18.45000076  10.67000008  54.65000153
H    20.93000031  10.70000076  54.22999954
H    23.22000122  11.50000000  54.68000031
H    21.80999947  13.09999943  58.41999817
H    13.42000008  11.89000034  58.30999756
H    24.63000107  13.00000000  56.19999695
H    23.97000122  13.53999996  57.71999741
S    13.07999992  10.57000065  53.81999969
C    10.42000008  10.47999954  54.41999817
C    11.65999985  10.92000008  54.81999969
C    11.96000004  11.25000000  56.18000031
C    10.92000008  11.46000004  57.05999756
C     9.59000015  11.19999981  56.66999817
C     8.52000046  11.07999992  57.60000229
C     7.26000023  10.62999916  57.25999832
C     7.04999971  10.15999985  55.93999863
C     8.06999969  10.21000004  55.01999664
C     9.35999966  10.70000076  55.34000015
C    13.40999985  11.31999969  56.31000137
C    14.17000008  10.95999908  55.15999603
C    15.55999947  10.97000027  55.06999969
C     5.63000011   9.85000038  55.52000046
H     5.30167007  10.25684357  54.56356049
H    10.32999992   9.88000011  53.52000427
H    11.07999992  11.69999981  58.11000061
H     8.61999989  11.51999950  58.59000397
H     6.38000011  10.70000076  57.88999939
H     7.81000042   9.94999981  53.99000168
H    16.15999985  10.78999996  54.18000031
H     5.03000021  10.15999985  56.38999939
H     5.52999973   8.76000023  55.40000153
S    17.25000000  12.48000050  52.69000244
C    19.98999977  12.43000031  52.19999695
C    18.72999954  12.06999969  51.79000092
C    18.42000008  11.56999969  50.47999954
C    19.44000053  11.38000011  49.56999969
C    20.72000122  11.84999943  49.93999863
C    21.87000084  11.76000023  49.10999680
C    23.16999817  12.11999989  49.38999939
C    23.46999931  12.65999985  50.66999817
C    22.40999985  12.61999989  51.55000305
C    21.04999924  12.31999969  51.25999832
C    16.97999954  11.46000004  50.27000046
C    16.21000099  11.90999985  51.37000275
C    14.82999992  12.09000015  51.32999802
C    24.86000061  12.98999977  51.16000366
H    25.37355804  12.19113445  51.69495392
H    20.19000053  12.86000061  53.16999817
H    19.37000084  11.03000069  48.54000092
H    21.64999962  11.39000034  48.11000061
H    23.95000076  12.10999966  48.63999939
H    22.53000069  13.04999924  52.54000092
H    14.23999977  12.50000000  52.14000320
H    25.53999901  13.09000015  50.31000137
H    24.89000130  13.97999954  51.63999939
S    13.85000038  10.92000008  47.68000031
C    11.07999992  10.95999908  48.23999786
C    12.38000011  11.13000011  48.64999771
C    12.69000053  11.63000011  49.95999908
C    11.59999943  11.87000084  50.79000092
C    10.26000023  11.52999973  50.48999786
C     9.18000031  11.61999893  51.40999603
C     7.88000011  11.31000042  51.06999969
C     7.62000036  10.84000015  49.75999832
C     8.65999985  10.67000008  48.87000275
C    10.00000000  11.07999992  49.15000153
C    14.11999893  11.72999954  50.18000031
C    14.88999939  11.28999901  49.06999969
C    16.27000046  11.14999962  49.09999847
C     6.21000004  10.50000000  49.34000015
H     5.91080999  10.96303177  48.39968872
H    10.80999947  10.59999943  47.25000000
H    11.92999935  12.18999958  51.77000046
H     9.48999977  12.01000023  52.37999725
H     7.09999990  11.51000023  51.79999924
H     8.50000000  10.13000011  47.94000244
H    16.80999947  10.81999969  48.22000122
H     5.59000015  10.71000004  50.21999741
H     6.10000038   9.40999985  49.22000122
