96

S    16.88999939  12.06999969  58.81000137
C    19.62000084  12.20999908  58.11000061
C    18.32999992  11.82000065  57.81000137
C    18.02000046  11.18999958  56.56000137
C    19.04000092  11.05999947  55.63999939
C    20.36999893  11.46000004  55.91999817
C    21.45000076  11.26999950  55.00999832
C    22.75000000  11.57999992  55.34000015
C    23.06999969  12.17000008  56.58000183
C    22.06000137  12.30999947  57.50000000
C    20.69999886  12.02999973  57.19999695
C    16.57999992  11.02000046  56.42000198
C    15.81999969  11.40999985  57.55000305
C    14.44000053  11.50000000  57.56000137
C    24.51999855  12.51000023  56.84999847
H    24.92561913  11.99052238  57.71816635
H    19.84000015  12.65999985  59.06999969
H    18.76000023  10.72000027  54.65000153
H    21.32999802  10.88999939  53.99000168
H    23.45999908  11.47999954  54.52999878
H    22.26000023  12.71999931  58.48999786
H    13.90999985  11.80999947  58.46000290
H    25.12000084  12.30000019  55.96000290
H    24.46000099  13.57999992  57.06999969
S    13.48999977  10.52000046  53.76999664
C    10.77000046  10.59000015  54.31000137
C    12.05000019  10.84000015  54.75000000
C    12.38999939  11.21999931  56.09000397
C    11.33999920  11.39999962  56.97000122
C    10.01999950  11.10000038  56.56000137
C     8.92000008  11.26000023  57.44999695
C     7.59999990  11.06999969  57.12999725
C     7.34000015  10.50000000  55.84999847
C     8.34999943  10.31000042  54.93999863
C     9.68000031  10.72999954  55.20999908
C    13.81999969  11.23000050  56.32999802
C    14.53999996  10.81999969  55.17000198
C    15.92000008  10.72000027  55.21999741
C     5.91000032  10.11999989  55.52999878
H     5.43182087  10.83370018  54.85912323
H    10.75000000   9.89000034  53.47999954
H    11.56999969  11.79999924  57.95999908
H     9.19999981  11.64000034  58.43000031
H     6.88000011  11.10999966  57.94000244
H     8.10999966   9.89999962  53.95999908
H    16.40999985  10.52999973  54.27000046
H     5.29999971  10.03000069  56.44000244
H     5.84000015   9.10000038  55.14999771
S    13.81999969   8.32999992  50.90000153
C    11.13999939   7.63000011  51.52999878
C    12.46999931   7.68000031  51.84999847
C    12.90999985   7.05999947  53.06999969
C    11.97000027   6.48000002  53.90999603
C    10.57999992   6.63000011  53.72000122
C     9.56999969   6.26999950  54.65999985
C     8.23000050   6.54999971  54.52999878
C     7.86000013   7.03999996  53.25000000
C     8.76999950   7.39000034  52.27000427
C    10.17000008   7.25000000  52.49000168
C    14.34999943   7.11999989  53.22999954
C    14.96000099   7.83999968  52.16999817
C    16.25000000   8.34999943  52.27000427
C     6.39999962   7.30000019  52.97000122
H     5.97299623   7.06514835  51.99500656
H    10.95999908   8.10999966  50.56999969
H    12.32999992   6.05000019  54.84000397
H     9.90999985   5.84000015  55.59999847
H     7.57000017   6.32000017  55.35999680
H     8.52000046   7.75000000  51.27999878
H    16.79000092   8.85999966  51.46999741
H     5.78000021   6.86999989  53.76999664
H     6.26999950   8.38000011  53.11000061
S    17.57999992   6.88000011  55.73999786
C    20.22999954   7.30999994  55.11000061
C    18.90999985   7.57000017  54.79999924
C    18.45000076   8.11999989  53.55999756
C    19.45999908   8.50000000  52.69000244
C    20.85000038   8.43999958  52.95000076
C    21.80999947   9.00000000  52.04999924
C    23.11000061   8.73999977  52.42000198
C    23.51000023   7.99000025  53.55999756
C    22.56999969   7.57000017  54.45999908
C    21.18999863   7.75000000  54.15999985
C    17.01000023   8.03999996  53.40000153
C    16.44000053   7.23000002  54.41999817
C    15.11000061   6.80999994  54.36000061
C    24.96999931   7.90999985  53.95000076
H    25.28338432   8.68633652  54.64799118
H    20.48000145   6.63999987  55.93000031
H    19.02000046   8.94999981  51.81000137
H    21.42000008   9.65999985  51.29000092
H    23.95000076   9.15000057  51.86000061
H    22.79999924   7.16000032  55.44000244
H    14.68999958   6.44000006  55.28999710
H    25.62999916   7.90999985  53.06999969
H    25.17999840   6.90999985  54.36999893
