96

S    16.39000130  11.85999966  59.13000107
C    19.06999969  12.13000107  58.22999954
C    17.76000023  11.77999973  58.00000000
C    17.38999939  11.31000042  56.69000244
C    18.31999969  11.13000011  55.68999863
C    19.69000053  11.36999989  55.97999954
C    20.69999886  11.31000042  54.98000336
C    22.01999855  11.61999893  55.19000244
C    22.36000061  12.20000076  56.44000244
C    21.40000153  12.38999939  57.41000366
C    20.06000137  11.97000027  57.22999954
C    15.93999958  11.31999969  56.56000137
C    15.26999950  11.63000011  57.77000046
C    13.88000011  11.67000008  57.84000015
C    23.81999969  12.46999931  56.73999786
H    24.34030914  11.77863026  57.40285873
H    19.34000015  12.68000031  59.13000107
H    17.94999886  10.78999996  54.72999954
H    20.30999947  11.09000015  53.99000168
H    22.72999954  11.40999985  54.38999939
H    21.68000031  12.64999962  58.43000031
H    13.43999958  11.90000057  58.81000137
H    24.28999901  12.57999992  55.75000000
H    23.88999939  13.50999928  57.09999847
S    12.72999954  10.72000027  54.13000107
C    10.06999969  10.54999924  54.80999756
C    11.35000038  10.81999969  55.24000168
C    11.65999985  11.31000042  56.55000305
C    10.62999916  11.36999989  57.47000122
C     9.28999996  11.13000011  57.08000183
C     8.27000046  11.23999977  58.06999969
C     6.97000027  10.90999985  57.76000214
C     6.67999983  10.42000008  56.45999908
C     7.64999962  10.31999969  55.50000000
C     9.00000000  10.69000053  55.73999786
C    13.09999943  11.47999954  56.69000244
C    13.78000069  11.21999931  55.47000122
C    15.15999985  11.18999958  55.40000153
C     5.31000042   9.85000038  56.17000198
H     4.85521603  10.43979740  55.37413025
H     9.85000038  10.19999981  53.80000305
H    10.85000038  11.46999931  58.53000259
H     8.52999973  11.39000034  59.12000275
H     6.34000015  10.62000084  58.59000397
H     7.42999983  10.00000000  54.47999954
H    15.76000023  11.07999992  54.50000000
H     4.80999994   9.96000004  57.14000320
H     5.42999983   8.78000069  55.94999695
S    17.15999985  12.23000050  52.63000107
C    19.81999969  12.50000000  51.95000076
C    18.54999924  12.20000076  51.52999878
C    18.20000076  11.90000057  50.17000198
C    19.26000023  11.89000034  49.29000092
C    20.61000061  12.13999939  49.65000153
C    21.61999893  12.05999947  48.64999771
C    22.88999939  12.34000015  49.09999847
C    23.15999985  12.89000034  50.38000107
C    22.20000076  12.89000034  51.37000275
C    20.89999962  12.43999958  51.03000259
C    16.76000023  11.72000027  50.00000000
C    16.09000015  12.00000000  51.23000336
C    14.73000050  12.23000050  51.32999802
C    24.57999992  13.22000027  50.77999878
H    24.99358177  12.49979591  51.48594284
H    20.10000038  12.84999943  52.94000244
H    19.00000000  11.64999962  48.26000214
H    21.42000008  11.94000053  47.58999634
H    23.68999863  12.18000031  48.39000320
H    22.40999985  13.28999996  52.36000061
H    14.22999954  12.43000031  52.27000427
H    25.27000046  13.10999966  49.93000031
H    24.53000069  14.27000046  51.10000229
S    13.43000031  11.46000004  47.64999771
C    10.72000027  11.42000008  48.40999985
C    12.03999996  11.63000011  48.75000000
C    12.50000000  11.79999924  50.08999634
C    11.47999954  12.02999973  51.00000000
C    10.11999989  11.77000046  50.72000122
C     9.06999969  11.82000065  51.69000244
C     7.76999998  11.47999954  51.40999603
C     7.40000010  11.03999996  50.11000061
C     8.36000061  11.03999996  49.12000275
C     9.72000027  11.31999969  49.41999817
C    13.94999981  11.94000053  50.20000076
C    14.60000038  11.67000008  48.96999741
C    15.98000050  11.65999985  48.83999634
C     5.98000002  10.62999916  49.78000259
H     5.52963495  11.28767586  49.03654099
H    10.65999985  11.05000019  47.38999939
H    11.85999966  12.38000011  51.95999908
H     9.21000004  12.15000057  52.70999908
H     7.07000017  11.56000042  52.23999786
H     8.13000011  10.88000107  48.06999969
H    16.48999977  11.61000061  47.88999939
H     5.46000004  10.50000000  50.73999786
H     6.06999969   9.56999969  49.50000000
