96

S    16.54999924  12.18000031  58.89999771
C    19.27999878  12.31999969  58.25000000
C    18.01000023  11.90000057  57.91999817
C    17.64000130  11.38000011  56.63999939
C    18.61999893  11.26999950  55.66999817
C    19.93999863  11.71000004  55.93999863
C    20.97999954  11.44999981  55.00000000
C    22.27000046  11.78999996  55.34999847
C    22.60000038  12.32999992  56.62000275
C    21.61999893  12.56999969  57.55000305
C    20.28000069  12.20999908  57.23999786
C    16.20000076  11.33999920  56.44000244
C    15.46000004  11.77999973  57.56000137
C    14.06999969  11.77000046  57.69000244
C    24.01000023  12.71000004  57.02000046
H    24.49905777  11.94451904  57.62246323
H    19.48999977  12.72999954  59.22999954
H    18.30999947  10.82999992  54.72999954
H    20.71000099  10.90999985  54.09000015
H    23.09000015  11.46999931  54.71000290
H    21.87000084  12.93000031  58.54000092
H    13.63000011  12.10000038  58.62999725
H    24.60000038  13.05999947  56.16000366
H    23.92000008  13.61999989  57.62000275
S    13.05999947  10.36999893  54.06999969
C    10.32999992  10.62000084  54.62999725
C    11.63000011  10.78999996  55.04000092
C    11.90000057  11.26999950  56.36000061
C    10.86999989  11.61000061  57.21000290
C     9.52999973  11.36000061  56.84000015
C     8.46000004  11.47999954  57.77000046
C     7.17000008  11.10999966  57.45999908
C     6.89000034  10.67000008  56.13999939
C     7.88000011  10.65000057  55.19000244
C     9.25000000  10.86999989  55.51000214
C    13.34000015  11.38000011  56.56999969
C    14.06000042  10.92000008  55.43000031
C    15.44000053  10.82999992  55.38000107
C     5.55000019  10.03999901  55.83000183
H     4.97995615  10.65279770  55.13169861
H    10.21000004  10.19000053  53.63999939
H    11.09000015  12.06999969  58.16999817
H     8.67000008  11.87999916  58.75999832
H     6.34999990  11.02000046  58.16999817
H     7.75000000  10.22999954  54.19000244
H    15.92000008  10.44999981  54.47999954
H     4.97000027   9.94999981  56.76000214
H     5.75000000   9.03999996  55.43000031
S    17.10000038  12.36999989  52.75000000
C    19.81999969  12.35000038  51.97000122
C    18.50000000  12.05999947  51.70999908
C    18.09999847  11.56999969  50.43000031
C    19.04000092  11.39999962  49.43000031
C    20.42000008  11.68000031  49.64000320
C    21.44000053  11.40999985  48.68000031
C    22.73999977  11.75000000  48.93000031
C    23.09000015  12.20999908  50.22999573
C    22.13999939  12.48999977  51.18999863
C    20.78000069  12.13999939  50.94999695
C    16.65999985  11.38000011  50.31000137
C    15.98999977  11.82999992  51.47999573
C    14.61999989  12.02000046  51.59000015
C    24.50000000  12.67000008  50.52999878
H    24.94781113  12.06581116  51.31900024
H    20.15000153  12.86000061  52.87000275
H    18.71000099  11.00000000  48.47999954
H    21.19999886  10.90999985  47.74000168
H    23.52999878  11.72000027  48.18999863
H    22.29999924  12.82999992  52.21000290
H    14.09999943  12.22000027  52.51999664
H    25.10999870  12.69999981  49.61999893
H    24.48999786  13.67000008  50.98999786
S    13.45999908  11.10000038  47.87000275
C    10.78999996  10.98999977  48.54000092
C    12.06999969  11.26999950  48.95999908
C    12.43000031  11.65999985  50.28999710
C    11.39000034  11.75000000  51.19999695
C    10.03999901  11.56000042  50.83000183
C     8.90999985  11.69000053  51.69000244
C     7.63999987  11.47999954  51.23000336
C     7.39000034  10.97000027  49.93000031
C     8.45000076  10.70000076  49.09000015
C     9.75000000  11.09000015  49.50000000
C    13.88000011  11.72999954  50.43000031
C    14.55000019  11.31999969  49.26000214
C    15.90999985  11.03999996  49.18000031
C     6.05999994  10.31999969  49.61999893
H     5.49085522  10.85357285  48.85876846
H    10.65999985  10.54999924  47.55000305
H    11.61999893  12.05000019  52.22000122
H     9.11000061  11.92000008  52.74000168
H     6.80999994  11.61999893  51.91999817
H     8.36000061  10.26000023  48.09999847
H    16.43000031  10.77000046  48.26000214
H     5.36999989  10.06000042  50.43000031
H     6.26999950   9.35000038  49.15999985
