96

S    16.60000038  12.28999996  58.61999893
C    19.26000023  12.20000076  58.01000214
C    18.00000000  11.77999973  57.64999771
C    17.71000099  11.26000023  56.33999634
C    18.76000023  11.03000069  55.47999954
C    20.06999969  11.43000031  55.83000183
C    21.17000198  11.31999969  54.93000031
C    22.42000198  11.72999954  55.31000137
C    22.67999840  12.36999989  56.55000305
C    21.64999962  12.48000050  57.44999695
C    20.34000015  12.02000046  57.11999893
C    16.27000046  11.30000019  56.12999725
C    15.57000065  11.82000065  57.25000000
C    14.19999981  12.02000046  57.21000290
C    24.06999969  12.81999969  56.95000076
H    24.59800148  12.14215946  57.62070465
H    19.52000046  12.84999943  58.83999634
H    18.53999901  10.65999985  54.47999954
H    20.88000107  10.97000027  53.94000244
H    23.18000031  11.68000031  54.52999878
H    21.80999947  12.72999954  58.48999786
H    13.73999977  12.30999947  58.15999985
H    24.70000076  12.94999981  56.05999756
H    23.87000084  13.69999981  57.57999802
S    13.09000015  10.54999924  53.73000336
C    10.36999893  10.72999954  54.36999893
C    11.68000031  11.02000046  54.68999863
C    12.02999973  11.43000031  56.02000427
C    11.05999947  11.67000008  56.97999954
C     9.71000004  11.42000008  56.63999939
C     8.69999981  11.42000008  57.63999939
C     7.40000010  11.03999996  57.37999725
C     7.04999971  10.54999924  56.10000229
C     8.02999973  10.40999985  55.14999771
C     9.36999989  10.84000015  55.37000275
C    13.47000027  11.56000042  56.11000061
C    14.21000004  11.03999996  55.01999664
C    15.59000015  10.92000008  54.95999908
C     5.59999990  10.26999950  55.77000046
H     5.15270233  10.86639690  54.97480392
H    10.03999901  10.15999985  53.50999832
H    11.33999920  12.02999973  57.97000122
H     9.02999973  11.61999893  58.66000366
H     6.67999983  11.25000000  58.15999985
H     7.83999968   9.98000050  54.16999817
H    16.17000008  10.40999985  54.19000244
H     4.98000002  10.34000015  56.66999817
H     5.50000000   9.21000004  55.47000122
S    13.22000027   8.47000027  50.86999893
C    10.65000057   7.90000010  51.70000076
C    12.00000000   7.76999998  51.93999863
C    12.55000019   7.26000023  53.15000153
C    11.72000027   6.78999996  54.15000153
C    10.31999969   6.88000011  53.92000198
C     9.36999989   6.34999990  54.84000397
C     8.03999996   6.30000019  54.50000000
C     7.49000025   6.98999977  53.39000320
C     8.36999989   7.59000015  52.51999664
C     9.77999973   7.50000000  52.74000168
C    14.00000000   7.42000008  53.18000031
C    14.48999977   8.14999962  52.05999756
C    15.80999947   8.59000015  52.11000061
C     6.01000023   7.00999975  53.08000183
H     5.70377874   6.63256407  52.10436249
H    10.21999931   8.30999947  50.79000092
H    12.09000015   6.12999964  54.93000031
H     9.76000023   5.88999987  55.73999786
H     7.50999975   5.58000040  55.12000275
H     8.10000038   8.06999969  51.58000183
H    16.21000099   9.07999992  51.23000336
H     5.42000008   6.42000008  53.80000305
H     5.65999985   8.03999996  53.20999908
S    17.30999947   7.03999996  55.48999786
C    19.90999985   7.60999966  54.79000092
C    18.57999992   7.72000027  54.45000076
C    18.13999939   8.36000061  53.23999786
C    19.05999947   8.85999966  52.34000397
C    20.43999863   8.67999935  52.63000107
C    21.42999840   9.18000031  51.73999786
C    22.76000023   8.93000031  51.97999954
C    23.15000153   8.14999962  53.11000061
C    22.23999977   7.75000000  54.06000137
C    20.86999893   8.05999947  53.85000229
C    16.69000053   8.25000000  53.15000153
C    16.13999939   7.53999996  54.25000000
C    14.80999947   7.13000011  54.27999878
C    24.60000038   7.78999996  53.33000183
H    25.00466347   8.35794830  54.16772461
H    20.25000000   7.03999996  55.65000153
H    18.79999924   9.47000027  51.47999573
H    21.11999893   9.77000046  50.87999725
H    23.54000092   9.25000000  51.30000305
H    22.50999832   7.14999962  54.92000198
H    14.35999966   6.72999954  55.18000031
H    25.10000038   8.00000000  52.37999725
H    24.63999939   6.71999979  53.54999924
