96

S    16.51000023  12.20999908  58.43000031
C    19.26000023  12.11999989  57.81000137
C    17.94999886  11.92999935  57.43000031
C    17.63000107  11.18999958  56.25000000
C    18.67000008  10.90999985  55.38999939
C    20.03000069  11.25000000  55.59000015
C    21.11999893  11.21999931  54.68000031
C    22.40999985  11.40999985  55.12000275
C    22.63999939  12.02000046  56.38000107
C    21.61999893  12.13000107  57.29000092
C    20.29000092  11.82000065  56.88000107
C    16.18999863  11.02000046  56.07999802
C    15.44999981  11.52999973  57.18000031
C    14.06999969  11.71000004  57.18000031
C    23.97999954  12.61999989  56.72999954
H    24.45625305  11.94471455  57.44082260
H    19.50000000  12.53999901  58.79000092
H    18.35000038  10.54999924  54.40999985
H    20.86000061  10.78999996  53.72000122
H    23.16999817  11.26999950  54.34999847
H    21.88999939  12.53999901  58.26000214
H    13.55999947  12.01000023  58.09000015
H    24.51999855  12.71000004  55.77999878
H    23.80000114  13.59000015  57.19999695
S    12.94000053  10.31999969  53.67000198
C    10.26999950  10.26999950  54.38999939
C    11.54000092  10.70000076  54.68999863
C    11.90999985  11.36000061  55.90999985
C    10.95000076  11.42000008  56.90000153
C     9.64999962  10.93999958  56.63000107
C     8.65999985  11.00999928  57.64999771
C     7.32999992  10.72999954  57.39999771
C     6.98000002  10.25000000  56.11999893
C     7.88999987  10.03999901  55.11000061
C     9.26000023  10.31999969  55.38999939
C    13.35999966  11.46999931  56.00000000
C    14.06999969  10.88000107  54.92000198
C    15.44999981  10.67999935  54.93999863
C     5.59000015   9.72000027  55.84000015
H     5.09969711  10.46611309  55.21468735
H     9.94999981   9.92000008  53.40999985
H    11.21999931  11.84000015  57.87000275
H     8.82999992  11.52999973  58.57999802
H     6.63000011  10.85999966  58.22000122
H     7.62000036   9.61000061  54.15000153
H    15.90000057  10.36999893  54.00000000
H     5.10999966   9.63999939  56.83000183
H     5.65000010   8.73999977  55.34999847
S    17.18000031  12.30999947  52.47000122
C    19.81999969  12.46000099  51.73999786
C    18.54999924  12.07999992  51.37000275
C    18.18000031  11.69000053  50.05000305
C    19.15999985  11.51999950  49.09000015
C    20.48000145  11.87999916  49.41999817
C    21.53000069  11.84000015  48.44999695
C    22.82999992  12.15999985  48.77999878
C    23.19000053  12.28999996  50.14999771
C    22.20000076  12.53000069  51.05999756
C    20.82999992  12.28999996  50.75000000
C    16.72999954  11.57999992  49.93999863
C    16.06999969  11.97999954  51.12999725
C    14.68999958  12.05999947  51.25999832
C    24.56999969  12.76000023  50.56000137
H    24.99021912  12.14747715  51.35770416
H    20.06000137  12.86999893  52.70999908
H    18.86999893  11.21000099  48.08000183
H    21.34000015  11.59999943  47.41000366
H    23.51000023  12.32999992  47.95999908
H    22.32000160  13.00000000  52.04000092
H    14.17000008  12.25000000  52.19999695
H    25.27000046  12.64999962  49.72999954
H    24.41999817  13.81999969  50.81999969
S    13.40000057  10.88999939  47.70999908
C    10.77999973  10.97000027  48.44999695
C    12.06999969  11.28000069  48.81999969
C    12.43999958  11.72000027  50.13000107
C    11.46999931  12.01000023  51.06999969
C    10.14000034  11.65999985  50.75000000
C     9.15999985  11.72999954  51.77999878
C     7.88000011  11.32999992  51.50000000
C     7.48000050  10.86999989  50.20999908
C     8.40999985  10.93000031  49.20000076
C     9.77999973  11.23000050  49.41999817
C    13.89999962  11.77000046  50.13999939
C    14.55999947  11.30000019  48.97999573
C    15.93999958  11.17000008  48.85000229
C     6.12999964  10.26999950  49.89999771
H     5.57210445  10.79928493  49.12752914
H    10.67000008  10.48999977  47.48000336
H    11.73999977  12.42000008  52.04000092
H     9.50000000  12.03999996  52.77000046
H     7.22000027  11.26000023  52.36000061
H     8.11999989  10.39999962  48.29000092
H    16.36999893  10.78999996  47.93000031
H     5.56999969  10.27999973  50.84999847
H     6.28999996   9.23999977  49.54999924
