96

S    16.45000076  12.03999996  58.69999695
C    19.15999985  12.13999939  58.06999969
C    17.87999916  11.84000015  57.67000198
C    17.54999924  11.31000042  56.38000107
C    18.57999992  11.10999966  55.47999954
C    19.88000107  11.50000000  55.87999725
C    21.00000000  11.38000011  55.01999664
C    22.29999924  11.73999977  55.27999878
C    22.60000038  12.30000019  56.56000137
C    21.57999992  12.38999939  57.47000122
C    20.22999954  12.10000038  57.14000320
C    16.10999870  11.13999939  56.22000122
C    15.38000011  11.56000042  57.36999893
C    14.00000000  11.56000042  57.50000000
C    24.05999947  12.60000038  56.84000015
H    24.52975464  11.95230865  57.58021927
H    19.36000061  12.51000023  59.08000183
H    18.44000053  10.82999992  54.43999863
H    20.79000092  10.81999969  54.12000275
H    23.09999847  11.73999977  54.54999924
H    21.75000000  12.81999969  58.46000290
H    13.55000019  11.76000023  58.47000122
H    24.57999992  12.51000023  55.87999725
H    24.03000069  13.68000031  57.04000092
S    12.88000011  10.70000076  53.81999969
C    10.29000092  10.22999954  54.54999924
C    11.52999973  10.67000008  54.95999908
C    11.79999924  11.06999969  56.31000137
C    10.72000027  11.10999966  57.16999817
C     9.42000008  10.72999954  56.77999878
C     8.34999943  10.77999973  57.71999741
C     7.07000017  10.55999947  57.28000259
C     6.85999966  10.13000011  55.93999863
C     7.85000038  10.01999950  55.00000000
C     9.17000008  10.32999992  55.41999817
C    13.23999977  11.23000050  56.36000061
C    13.97999954  11.06999969  55.15999603
C    15.36000061  10.90000057  55.06999969
C     5.40000010   9.85000038  55.68000031
H     5.00053406  10.37073326  54.80973434
H    10.13000011   9.89999962  53.53000259
H    10.88000107  11.36999989  58.22000122
H     8.56999969  11.18999958  58.70999908
H     6.23000050  10.62999916  57.97000122
H     7.71000004   9.63999939  53.99000168
H    15.85999966  10.60999966  54.15999985
H     4.81999969  10.26000023  56.52000046
H     5.23999977   8.76000023  55.63999939
S    17.02000046  12.51999950  52.57999802
C    19.70999908  12.51000023  52.11000061
C    18.46999931  12.15000057  51.63000107
C    18.13999939  11.80999947  50.27999878
C    19.22999954  11.56999969  49.45999908
C    20.53999901  11.90999985  49.87999725
C    21.54999924  11.92000008  48.87000275
C    22.77000046  12.50000000  49.13999939
C    23.02999878  12.93000031  50.47000122
C    22.10000038  12.89000034  51.47999573
C    20.78000069  12.46999931  51.18000031
C    16.70999908  11.84999943  50.01999664
C    15.98000050  12.28999996  51.16000366
C    14.60000038  12.35000038  51.27999878
C    24.37999916  13.45999908  50.90000153
H    24.94099236  12.70727539  51.45389175
H    19.76000023  12.89999962  53.13000107
H    19.05999947  11.44000053  48.39000320
H    21.31000137  11.59000015  47.87000275
H    23.51000023  12.53000069  48.36000061
H    22.26000023  13.30999947  52.47000122
H    14.09999943  12.72999954  52.16999817
H    24.87999916  13.86000061  50.00999832
H    24.38999939  14.28999996  51.62000275
S    13.45999908  11.03000069  47.71999741
C    10.76000023  10.95999908  48.47000122
C    12.05000019  11.31999969  48.75999832
C    12.43000031  11.92999935  50.00000000
C    11.39999962  12.06999969  50.90999985
C    10.06999969  11.59999943  50.72999954
C     9.04999924  11.69999981  51.72000122
C     7.76000023  11.33999920  51.38999939
C     7.39000034  10.88000107  50.10000229
C     8.36999989  10.77999973  49.13999939
C     9.72000027  11.07999992  49.43999863
C    13.86999989  12.02000046  50.13000107
C    14.57999992  11.51999950  49.00000000
C    15.95999908  11.51000023  48.88999939
C     5.93999958  10.53999996  49.86000061
H     5.46292353  11.10964298  49.06250000
H    10.67999935  10.48999977  47.50000000
H    11.54000092  12.53999901  51.88000107
H     9.17000008  12.22000027  52.65999603
H     7.05999947  11.21999931  52.21000290
H     8.10999966  10.21999931  48.23999786
H    16.48999977  11.26000023  47.97000122
H     5.31000042  10.44999981  50.75000000
H     5.88000011   9.51000023  49.47999954
