96

S    16.61999893  12.02999973  58.80000305
C    19.32999992  12.05000019  58.09000015
C    18.02999878  11.72000027  57.77000046
C    17.70000076  11.23999977  56.45999908
C    18.71000099  11.09000015  55.52999878
C    20.03000069  11.47999954  55.83000183
C    21.04999924  11.36999989  54.84000397
C    22.34999847  11.59000015  55.24000168
C    22.69000053  12.07999992  56.52999878
C    21.73000145  12.20999908  57.50000000
C    20.38000107  11.90000057  57.15999985
C    16.26000023  11.28000069  56.26999664
C    15.54999924  11.71000004  57.42000198
C    14.17000008  11.85999966  57.45999908
C    24.15999985  12.32999992  56.77999878
H    24.50181389  11.76743031  57.64877701
H    19.48999977  12.44999981  59.08000183
H    18.54999924  10.59999943  54.56999969
H    20.81999969  11.03000069  53.83999634
H    23.16999817  11.39000034  54.54999924
H    21.90999985  12.46000099  58.54999924
H    13.64999962  12.28999996  58.30999756
H    24.82000160  12.00000000  55.96000290
H    24.20999908  13.40999985  56.95999908
S    12.90999985  10.36999893  54.03999710
C    10.21000004  10.53999996  54.68000031
C    11.51000023  10.84000015  55.02999878
C    11.92000008  11.35000038  56.30000305
C    10.92000008  11.49000072  57.25000000
C     9.59000015  11.13999939  56.95000076
C     8.52999973  11.26999950  57.90000153
C     7.28999996  10.78999996  57.56000137
C     6.94000006  10.26000023  56.29000092
C     7.90999985  10.14999962  55.31999969
C     9.19000053  10.65999985  55.65000153
C    13.36999989  11.47999954  56.37000275
C    14.06000042  11.07999992  55.20000076
C    15.44000053  10.95999908  55.17000198
C     5.50000000   9.86999989  56.04999924
H     5.04494524  10.56680298  55.34608841
H     9.89999962  10.06999969  53.75000000
H    11.30000019  11.72000027  58.25000000
H     8.67000008  11.54000092  58.94000244
H     6.50000000  10.93999958  58.29000092
H     7.53000021   9.85000038  54.34000015
H    15.88999939  10.59000015  54.25000000
H     4.92000008   9.80000019  56.97999954
H     5.56999969   8.90999985  55.52999878
S    16.98999977  12.64000034  52.95000076
C    19.62000084  12.75000000  52.22000122
C    18.38000107  12.25000000  51.91999817
C    18.02000046  11.80999947  50.59999847
C    19.03000069  11.78999996  49.65000153
C    20.38000107  11.97000027  50.01999664
C    21.42999840  11.80999947  49.06999969
C    22.73999977  12.09000015  49.40000153
C    22.95999908  12.72999954  50.65000153
C    22.01999855  12.90999985  51.63999939
C    20.69000053  12.51000023  51.31999969
C    16.56999969  11.79999924  50.43000031
C    15.90999985  12.28999996  51.58000183
C    14.52999973  12.28000069  51.70999908
C    24.36000061  13.22000027  50.93000031
H    24.92275238  12.52190495  51.54973602
H    19.81999969  13.27000046  53.15000153
H    18.78000069  11.26999950  48.73000336
H    21.18999863  11.36000061  48.11000061
H    23.57000160  12.00000000  48.70999908
H    22.21999931  13.26000023  52.64999771
H    13.94999981  12.41000080  52.62000275
H    24.92000198  13.40999985  50.00999832
H    24.17000008  14.17000008  51.45000076
S    13.43999958  11.05999947  48.04999924
C    10.72999954  11.03000069  48.72000122
C    12.01000023  11.39000034  49.05000305
C    12.35999966  11.85999966  50.35999680
C    11.33999920  12.03999996  51.26999664
C    10.01999950  11.61000061  50.97000122
C     8.93999958  11.77000046  51.88000107
C     7.63000011  11.51000023  51.52000046
C     7.28999996  11.00999928  50.22999573
C     8.30999947  10.90999985  49.31999969
C     9.67000008  11.14999962  49.65000153
C    13.80000019  12.02000046  50.54000092
C    14.48999977  11.61000061  49.36999893
C    15.86999989  11.46999931  49.27000046
C     5.84000015  10.71000004  49.89999771
H     5.39110947  11.30139637  49.10197067
H    10.46000004  10.54999924  47.77999878
H    11.44999981  12.38999939  52.29000092
H     9.15000057  12.10999966  52.88999939
H     6.84000015  11.59000015  52.25000000
H     8.03999996  10.72999954  48.27999878
H    16.40999985  11.07999992  48.40999985
H     5.26000023  10.98999977  50.77999878
H     5.75999975   9.65999985  49.58000183
