96

S    16.54000092  12.23999977  58.88000107
C    19.23999977  12.30999947  58.11000061
C    17.93000031  12.03999996  57.80000305
C    17.60000038  11.52999973  56.50000000
C    18.67000008  11.13000011  55.72000122
C    20.00000000  11.56000042  55.97000122
C    21.04000092  11.54000092  55.00000000
C    22.27000046  12.10000038  55.26000214
C    22.59000015  12.56999969  56.56999969
C    21.65999985  12.55000019  57.57999802
C    20.31999969  12.23999977  57.18999863
C    16.15999985  11.39000034  56.32999802
C    15.48999977  11.77999973  57.51999664
C    14.09999943  11.80999947  57.47000122
C    23.98999977  13.02999973  56.90000153
H    24.48847008  12.29653645  57.53376770
H    19.34000015  12.79000092  59.08000183
H    18.46999931  10.59000015  54.79999924
H    20.79999924  10.98999977  54.09000015
H    23.01000214  11.90000057  54.48999786
H    21.87000084  12.81000042  58.61000061
H    13.48000050  11.90000057  58.36000061
H    24.54000092  13.17000008  55.96000290
H    23.98999977  14.04000092  57.30999756
S    13.00000000  10.71000004  53.87000275
C    10.26000023  10.52999973  54.54999924
C    11.54999924  10.88000107  54.87999725
C    11.94000053  11.32999992  56.18000031
C    10.90999985  11.44000053  57.09000015
C     9.52999973  11.39999962  56.76000214
C     8.50000000  11.64000034  57.71999741
C     7.21000004  11.23999977  57.44999695
C     6.90000010  10.65000057  56.19999695
C     7.88000011  10.44999981  55.25000000
C     9.22000027  10.85999966  55.45999908
C    13.38999939  11.46999931  56.31999969
C    14.14000034  11.16000080  55.15999603
C    15.52000046  11.06999969  55.13000107
C     5.51999998  10.06999969  55.96000290
H     4.94171762  10.73395348  55.31746674
H    10.07999992  10.00000000  53.61999893
H    11.07999992  11.68000031  58.13000107
H     8.85999966  11.90000057  58.70999908
H     6.48999977  11.10999966  58.26000214
H     7.63000011   9.72000027  54.47999954
H    16.03999901  10.52000046  54.34000015
H     5.10999966   9.80000019  56.93999863
H     5.73000002   9.13000011  55.45000076
S    17.29999924  12.82999992  52.88000107
C    19.97999954  13.07999992  52.00000000
C    18.68999863  12.61999989  51.79999924
C    18.30000114  11.98999977  50.56999969
C    19.27000046  11.77999973  49.61000061
C    20.63999939  12.02000046  49.88999939
C    21.65999985  11.87999916  48.90999603
C    22.98000145  12.18000031  49.16999817
C    23.35000038  12.76999950  50.40999985
C    22.36999893  13.02999973  51.33999634
C    21.01000023  12.67000008  51.11999893
C    16.86000061  11.76000023  50.54000092
C    16.14999962  12.20999908  51.66999817
C    14.77000046  12.34000015  51.63999939
C    24.79000092  13.03999996  50.75000000
H    25.18936348  12.34824467  51.49167633
H    20.13999939  13.71000099  52.87000275
H    19.02000046  11.49000072  48.59000397
H    21.35999870  11.47999954  47.95000076
H    23.74000168  12.05999947  48.40000153
H    22.57999802  13.50999928  52.29000092
H    14.19000053  12.76000023  52.45999908
H    25.45999908  13.09999943  49.86999893
H    24.77000046  14.06000042  51.16000366
S    13.68000031  11.00999928  48.09000015
C    10.95000076  11.19999981  48.61000061
C    12.23999977  11.39999962  49.05000305
C    12.56000042  12.03999996  50.28999710
C    11.50000000  12.30000019  51.14999771
C    10.18000031  11.92000008  50.81999969
C     9.11000061  11.97999954  51.76000214
C     7.82000017  11.59999943  51.47999573
C     7.51999950  11.18999958  50.15999603
C     8.51000023  11.14999962  49.20000076
C     9.86999989  11.42000008  49.51000214
C    13.99000072  11.96000004  50.54000092
C    14.73000050  11.39999962  49.47000122
C    16.11999893  11.31000042  49.43999863
C     6.19000006  10.54999924  49.85000229
H     5.61917543  11.22071934  49.20782471
H    10.72000027  11.02000046  47.56000137
H    11.77999973  12.61999989  52.15000153
H     9.27999973  12.41000080  52.75000000
H     7.09000015  11.59999943  52.29000092
H     8.36000061  10.80999947  48.16999817
H    16.69000053  10.95000076  48.59000397
H     5.65999985  10.47999954  50.80999756
H     6.21999979   9.51000023  49.47999954
