96

S    16.43000031  12.06999969  58.96999741
C    19.14999962  12.15000057  58.36000061
C    17.87999916  11.73999977  58.00000000
C    17.57999992  11.21000099  56.70999908
C    18.57999992  11.06999969  55.77000046
C    19.88999939  11.46999931  56.11999893
C    20.97999954  11.13999939  55.27000046
C    22.27999878  11.49000072  55.56000137
C    22.53999901  12.13999939  56.79999924
C    21.54000092  12.36999989  57.70999908
C    20.20999908  11.97000027  57.43000031
C    16.13999939  11.05999947  56.53999710
C    15.38000011  11.49000072  57.65999603
C    14.00000000  11.57999992  57.60000229
C    23.92000008  12.61000061  57.18000031
H    24.42537498  12.09750843  57.99856567
H    19.31999969  12.61999989  59.33000183
H    18.43000031  10.40999985  54.92000198
H    20.73999786  10.52999973  54.40999985
H    23.06999969  11.25000000  54.85000229
H    21.61000061  12.90999985  58.66000366
H    13.38999939  11.78999996  58.47999954
H    24.50000000  12.48000050  56.25999832
H    23.88000107  13.66000080  57.49000168
S    13.09999943  10.32999992  53.90999603
C    10.31000042  10.24000072  54.51000214
C    11.61000061  10.52000046  54.86000061
C    11.92000008  10.98999977  56.17000198
C    10.95000076  11.00999928  57.15999985
C     9.61999989  10.71000004  56.79000092
C     8.56999969  11.07999992  57.67000198
C     7.23999977  10.95999908  57.32999802
C     6.91999960  10.38000011  56.07999802
C     7.88999987  10.07999992  55.13999939
C     9.26000023  10.32999992  55.45000076
C    13.34000015  11.14999962  56.43000031
C    14.09999943  10.72000027  55.31999969
C    15.48999977  10.67000008  55.35999680
C     5.46999979  10.14999962  55.72999954
H     5.01699352  10.62424088  54.85937881
H    10.03000069   9.78999996  53.55999756
H    11.18000031  11.44000053  58.11999893
H     8.85999966  11.32999992  58.68999863
H     6.48999977  11.23999977  58.06000137
H     7.65999985   9.89999962  54.09999847
H    16.09000015  10.43000031  54.48999786
H     4.90999985  10.57000065  56.58000183
H     5.26999998   9.06999969  55.66999817
S    17.29999924  12.17000008  52.88000107
C    20.03000069  12.28999996  52.27000427
C    18.76000023  11.87999916  51.91999817
C    18.44000053  11.32999992  50.63999939
C    19.47999954  11.28999901  49.72999954
C    20.79000092  11.73999977  50.00999832
C    21.77000046  11.87000084  48.97999573
C    23.05999947  12.07999992  49.40999985
C    23.38000107  12.51999950  50.72000122
C    22.39999962  12.60000038  51.68000031
C    21.05999947  12.30000019  51.31000137
C    17.01000023  11.23999977  50.38000107
C    16.28000069  11.67000008  51.52000046
C    14.89999962  11.84000015  51.50000000
C    24.79000092  12.84999943  51.13999939
H    25.15382385  12.25076103  51.97465134
H    20.22999954  12.69000053  53.26000214
H    19.27000046  10.88999939  48.75000000
H    21.54000092  11.64000034  47.94000244
H    23.72999954  12.10999966  48.54999924
H    22.67000008  12.76999950  52.71999741
H    14.39000034  12.13999939  52.42000198
H    25.45999908  12.67000008  50.27999878
H    24.84000015  13.92000008  51.40999603
S    13.90999985  10.88000107  47.77000046
C    11.18000031  10.59000015  48.40000153
C    12.44999981  10.98000050  48.77999878
C    12.76000023  11.30000019  50.13000107
C    11.76000023  11.33999920  51.09000397
C    10.40999985  11.17000008  50.68000031
C     9.35000038  11.46999931  51.56999969
C     8.03999996  11.25000000  51.19999695
C     7.83999968  10.50000000  50.00999832
C     8.78999996  10.36000061  49.02999878
C    10.11999989  10.76000023  49.33000183
C    14.18000031  11.51999950  50.34000015
C    14.93999958  11.21000099  49.18000031
C    16.31999969  11.03999996  49.18000031
C     6.44999981   9.94999981  49.78000259
H     5.98812962  10.69609737  49.13338470
H    11.03000069  10.10000038  47.44999695
H    11.89000034  11.69000053  52.09999847
H     9.50000000  11.76000023  52.61000061
H     7.27999973  11.23000050  51.97000122
H     8.34999943   9.98999977  48.09999847
H    16.81999969  10.95999908  48.22000122
H     5.88999987   9.86999989  50.72000122
H     6.56000042   8.96000004  49.31999969
