96

S    16.76000023  12.31999969  58.54999924
C    19.40000153  12.51999950  57.78999710
C    18.17000008  11.96000004  57.54000092
C    17.78000069  11.51999950  56.23000336
C    18.76000023  11.36999989  55.27000046
C    20.10999870  11.64999962  55.59999847
C    21.15999985  11.46999931  54.65999985
C    22.49000168  11.72000027  54.88999939
C    22.79999924  12.41000080  56.09000397
C    21.80000114  12.67000008  57.00000000
C    20.45000076  12.23999977  56.86999893
C    16.32999992  11.44999981  56.11999893
C    15.64000034  12.05999947  57.19999695
C    14.26000023  12.11999989  57.29000092
C    24.23000145  12.81999969  56.38000107
H    24.69239044  12.30069923  57.21941757
H    19.52000046  13.19000053  58.63999939
H    18.57999992  11.05000019  54.23999786
H    20.88000107  11.13999939  53.67000198
H    23.25000000  11.65999985  54.10999680
H    21.97999954  13.17999935  57.94000244
H    13.81999969  12.42000008  58.25000000
H    24.71999931  12.71000004  55.40999985
H    24.25000000  13.89999962  56.59000015
S    13.02000046  10.47000027  53.81000137
C    10.36000061  10.59000015  54.56999969
C    11.67000008  10.84000015  54.89999771
C    12.10000038  11.44000053  56.12999725
C    11.09000015  11.72999954  57.02999878
C     9.75000000  11.31000042  56.84000015
C     8.71999931  11.54999924  57.78999710
C     7.39000034  11.26999950  57.56000137
C     7.09000015  10.55999947  56.36000061
C     8.03999996  10.25000000  55.41999817
C     9.39000034  10.65999985  55.61000061
C    13.53000069  11.69000053  56.18000031
C    14.13000011  11.13999939  55.00999832
C    15.52000046  11.03000069  55.06000137
C     5.64000034  10.29000092  56.04999924
H     5.27820778  10.77239037  55.14197540
H    10.06999969  10.19999981  53.60000229
H    11.33999920  12.35000038  57.88999939
H     9.06999969  12.01000023  58.70999908
H     6.63000011  11.79999924  58.11000061
H     7.88000011   9.84000015  54.43000031
H    15.97000027  10.62999916  54.15999985
H     5.03000021  10.67000008  56.88000107
H     5.59000015   9.22000027  55.77999878
S    17.12000084  12.90999985  52.77000046
C    19.85000038  12.97999954  52.00000000
C    18.53999901  12.64000034  51.73999786
C    18.13999939  11.97999954  50.52999878
C    19.07999992  11.76000023  49.54000092
C    20.45000076  11.98999977  49.81999969
C    21.53000069  11.79999924  48.90999603
C    22.86000061  12.09000015  49.10999680
C    23.18000031  12.71000004  50.34999847
C    22.20999908  12.90999985  51.31000137
C    20.84000015  12.60000038  51.05999756
C    16.69000053  11.92999935  50.38000107
C    15.98000050  12.36999989  51.52000046
C    14.60000038  12.53999901  51.56000137
C    24.60000038  13.15000057  50.61999893
H    25.05316734  12.68975163  51.49801254
H    20.10999870  13.57999992  52.85999680
H    18.85000038  11.47999954  48.52000427
H    21.30000114  11.31999969  47.97000122
H    23.55999947  11.69999981  48.37999725
H    22.44999886  13.48000050  52.19999695
H    14.09999943  12.71000004  52.50000000
H    25.17000008  13.21000004  49.68999863
H    24.46000099  14.18000031  50.96000290
S    13.45000076  11.21999931  48.00000000
C    10.73999977  11.13000011  48.68000031
C    12.03999996  11.40999985  49.03999710
C    12.38000011  12.01000023  50.30000305
C    11.39000034  12.30000019  51.22000122
C    10.05000019  11.94000053  50.90999985
C     8.98999977  12.05999947  51.84999847
C     7.72000027  11.65999985  51.49000168
C     7.36999989  11.23999977  50.18000031
C     8.38999939  10.98000050  49.29999924
C     9.72000027  11.32999992  49.65000153
C    13.81999969  12.17000008  50.45999908
C    14.52999973  11.69000053  49.33000183
C    15.92000008  11.64999962  49.23999786
C     5.98000002  10.67999935  49.97000122
H     5.46801996  11.16353703  49.13803482
H    10.52000046  10.77999973  47.67000198
H    11.69000053  12.81000042  52.11999893
H     9.26999950  12.39999962  52.84000015
H     6.94999981  11.61000061  52.25000000
H     8.22000027  10.50000000  48.33000183
H    16.43000031  11.39000034  48.31999969
H     5.38000011  10.97000027  50.84999847
H     5.98999977   9.59999943  49.80999756
