96

S    17.23999977  12.06999969  58.67000198
C    19.93999863  12.05000019  57.95000076
C    18.63999939  11.75000000  57.63999939
C    18.30000114  11.07999992  56.42000198
C    19.30999947  10.90999985  55.48999786
C    20.62999916  11.38000011  55.70999908
C    21.68999863  11.21000099  54.78000259
C    23.00000000  11.51000023  55.07999802
C    23.31000137  12.10000038  56.32999802
C    22.32999992  12.25999928  57.29999924
C    20.97999954  11.92000008  57.00000000
C    16.84999847  10.93000031  56.31000137
C    16.13999939  11.46999931  57.41000366
C    14.75000000  11.51000023  57.43999863
C    24.76000023  12.43000031  56.58000183
H    25.18752480  11.72458458  57.29254150
H    20.15000153  12.43999958  58.95000076
H    19.04000092  10.51000023  54.52000046
H    21.56999969  10.60999966  53.88000107
H    23.71999931  11.18000031  54.34000015
H    22.60999870  12.41000080  58.34000015
H    14.19999981  12.00000000  58.23999786
H    25.23999977  12.44999981  55.59999847
H    24.80999947  13.38999939  57.11999893
S    13.59000015  10.40999985  53.81999969
C    10.86999989  10.47000027  54.51000214
C    12.18000031  10.70000076  54.86000061
C    12.53999901  11.26000023  56.12999725
C    11.56999969  11.65999985  57.02999878
C    10.21000004  11.51999950  56.66999817
C     9.15999985  11.75000000  57.61000061
C     7.86000013  11.36000061  57.38999939
C     7.51999950  10.82999992  56.11999893
C     8.50000000  10.57000065  55.19000244
C     9.88000011  10.84000015  55.44000244
C    13.99000072  11.21000099  56.31000137
C    14.68999958  10.81999969  55.14999771
C    16.05999947  10.54999924  55.21999741
C     6.19000006  10.15999985  55.86000061
H     5.52039862  10.70850372  55.19752121
H    10.62000084   9.98000050  53.56999969
H    11.87000084  11.92000008  58.04000092
H     9.40999985  12.00000000  58.62999725
H     7.11000013  11.30000019  58.18000031
H     8.18000031  10.06000042  54.29000092
H    16.54999924  10.10000038  54.36999893
H     5.79999971  10.07999992  56.88999939
H     6.30000019   9.11000061  55.56000137
S    13.38999939   8.22000027  50.91999817
C    10.75000000   7.92000008  51.72000122
C    12.07999992   7.63999987  51.95999908
C    12.56999969   7.00999975  53.15000153
C    11.59999943   6.57000017  54.02999878
C    10.21000004   6.78999996  53.85000229
C     9.19000053   6.14000034  54.59999847
C     7.85000038   6.24000025  54.29999924
C     7.42000008   6.90000010  53.11999893
C     8.38999939   7.57000017  52.41000366
C     9.78999996   7.53999996  52.69000244
C    14.01999950   7.09000015  53.20999908
C    14.63000107   7.63000011  52.04999924
C    15.93999958   8.10000038  52.08000183
C     6.10000038   6.43000031  52.56999969
H     5.70901299   7.00581789  51.73115540
H    10.40999985   8.17000008  50.72000122
H    12.00000000   6.09000015  54.91000366
H     9.51000023   5.40000010  55.31999969
H     7.17999983   5.47999954  54.69999695
H     8.03999996   7.95000029  51.45000076
H    16.29999924   8.59000015  51.18000031
H     6.15000010   5.36000013  52.34000397
H     5.51999998   6.57000017  53.48999786
S    17.35000038   6.61000013  55.47999954
C    19.98999977   7.32999992  54.89999771
C    18.67000008   7.30999994  54.52000046
C    18.19000053   7.86000013  53.29000092
C    19.14999962   8.31999969  52.41000366
C    20.52999878   8.25000000  52.70999908
C    21.54000092   8.64000034  51.79000092
C    22.86999893   8.60000038  52.14000320
C    23.31000137   8.02999973  53.36999893
C    22.36000061   7.72000027  54.31999969
C    20.97999954   7.82999992  54.01000214
C    16.73999977   7.73000002  53.15999985
C    16.13999939   7.03000021  54.23999786
C    14.81999969   6.60000038  54.23999786
C    24.71999931   7.59999990  53.68999863
H    25.24450684   8.18121147  54.44841003
H    20.36999893   6.91999960  55.83000183
H    18.79999924   8.85999966  51.52999878
H    21.25999832   9.02999973  50.80999756
H    23.54999924   8.98999977  51.39999771
H    22.63999939   7.03999996  55.12000275
H    14.42000008   5.93999958  55.00999832
H    25.22000122   7.57000017  52.70999908
H    24.56999969   6.53999996  53.89999771
