96

S    16.86000061  12.74000072  58.81999969
C    19.57999992  12.86000061  58.11000061
C    18.30000114  12.43999958  57.81999969
C    17.92000008  11.77000046  56.62000275
C    18.92000008  11.52999973  55.70000076
C    20.27000046  11.87000084  55.94999695
C    21.35999870  11.63000011  55.06000137
C    22.69000053  11.77000046  55.38000107
C    22.95999908  12.46000099  56.58000183
C    21.96000099  12.84999943  57.44999695
C    20.59999847  12.53999901  57.18000031
C    16.48999977  11.54000092  56.45999908
C    15.78999996  11.98999977  57.62000275
C    14.40999985  12.15000057  57.57999802
C    24.37000084  12.84999943  56.97999954
H    24.71295738  12.22124290  57.80167389
H    19.84000015  13.48000050  58.96999741
H    18.60000038  11.03000069  54.79000092
H    21.05999947  11.21999931  54.09999847
H    23.45999908  11.44000053  54.69999695
H    22.06000137  13.48000050  58.31999969
H    13.89000034  12.64000034  58.39000320
H    25.09000015  12.76999950  56.14999771
H    24.31999969  13.90999985  57.25000000
S    13.36999989  10.80999947  53.95999908
C    10.59999943  11.03000069  54.47999954
C    11.90999985  11.30000019  54.81999969
C    12.30000019  11.90000057  56.05999756
C    11.25000000  12.18000031  56.90999985
C     9.89999962  11.87999916  56.60999680
C     8.80999947  12.06999969  57.50000000
C     7.53000021  11.64000034  57.23999786
C     7.18999958  11.00000000  56.02000427
C     8.19000053  10.82999992  55.08999634
C     9.52000046  11.26000023  55.37000275
C    13.71999931  11.85999966  56.39999771
C    14.42000008  11.32999992  55.28999710
C    15.78999996  11.09000015  55.34000015
C     5.82999992  10.47999954  55.61999893
H     5.28938055  11.12020683  54.92288589
H    10.38000011  10.44000053  53.59000397
H    11.39999962  12.67000008  57.87000275
H     9.11000061  12.30999947  58.52000427
H     6.80000019  11.73999977  58.04000092
H     7.88999987  10.47999954  54.10999680
H    16.20000076  10.59999943  54.45000076
H     5.23999977  10.26000023  56.52000046
H     6.05000019   9.48000050  55.20999908
S    16.97000122  12.79999924  52.85999680
C    19.69000053  13.07000065  52.15000153
C    18.40999985  12.67000008  51.83000183
C    18.09000015  12.18000031  50.52000046
C    19.11000061  11.97999954  49.61000061
C    20.43999863  12.31999969  49.94999695
C    21.52000046  12.15999985  49.02999878
C    22.85000038  12.35999966  49.31000137
C    23.11000061  12.81999969  50.63000107
C    22.11999893  13.15999985  51.52999878
C    20.76999855  12.79999924  51.26999664
C    16.65999985  11.94000053  50.40000153
C    15.90000057  12.31999969  51.52999878
C    14.51000023  12.46000099  51.52000046
C    24.53000069  13.26000023  50.86000061
H    25.04220963  12.66242218  51.61408615
H    19.82999992  13.45000076  53.15000153
H    18.79999924  11.68000031  48.61000061
H    21.42999840  11.68000031  48.06000137
H    23.68000031  12.25999928  48.61999893
H    22.27999878  13.67000008  52.47000122
H    13.96999931  12.97000027  52.30999756
H    25.05000114  13.32999992  49.89999771
H    24.57999992  14.30999947  51.17000198
S    13.50000000  11.21000099  47.90999985
C    10.80999947  11.03000069  48.59000397
C    12.07999992  11.43000031  48.95000076
C    12.35000038  12.06999969  50.20000076
C    11.30000019  12.28000069  51.06999969
C     9.96999931  11.92999935  50.72000122
C     8.88000011  12.27000046  51.56999969
C     7.57000017  11.98999977  51.26999664
C     7.31999969  11.36999989  50.00999832
C     8.34000015  11.06999969  49.13999939
C     9.71000004  11.35000038  49.43000031
C    13.80000019  12.05999947  50.38000107
C    14.55999947  11.59999943  49.27999878
C    15.95000076  11.51999950  49.27000046
C     5.95000029  10.90000057  49.58000183
H     5.38137531  11.56813431  48.93319321
H    10.67999935  10.46000004  47.67000198
H    11.44999981  12.64000034  52.08000183
H     9.10000038  12.82999992  52.47000122
H     6.76000023  12.17000008  51.97000122
H     8.10999966  10.64000034  48.16999817
H    16.43000031  11.10000038  48.39000320
H     5.38999987  10.72999954  50.51000214
H     6.05000019   9.98999977  48.97999573
