96

S    16.72000122  11.92000008  58.97999573
C    19.34999847  12.07999992  58.22000122
C    18.09999847  11.56999969  57.93000031
C    17.71999931  10.92000008  56.70999908
C    18.78999901  10.62999916  55.87999725
C    20.10000038  11.10000038  56.09000397
C    21.27000046  10.85000038  55.31000137
C    22.56999969  11.03000069  55.70999908
C    22.77000046  11.87999916  56.81999969
C    21.71999931  12.22000027  57.63999939
C    20.38999939  11.84999943  57.28000259
C    16.27000046  10.82999992  56.59999847
C    15.59000015  11.31000042  57.75000000
C    14.21000004  11.46999931  57.80000305
C    24.14999962  12.38000011  57.18999863
H    24.62543488  11.77683640  57.96346664
H    19.62000084  12.69000053  59.06999969
H    18.53999901  10.03000069  55.00000000
H    21.04000092  10.26999950  54.41999817
H    23.34000015  10.75000000  55.00000000
H    21.96000099  12.57999992  58.62999725
H    13.80000019  11.78999996  58.75000000
H    24.80999947  12.34000015  56.31999969
H    24.11000061  13.43000031  57.49000168
S    13.09999943   9.89000034  54.33000183
C    10.36999893   9.89000034  54.98000336
C    11.67000008  10.17000008  55.34000015
C    12.00000000  10.85999966  56.55000305
C    10.98000050  11.13999939  57.44999695
C     9.63000011  10.90999985  57.11000061
C     8.63000011  11.10000038  58.11000061
C     7.31999969  10.77999973  57.80000305
C     7.00999975  10.14999962  56.56999969
C     7.96999979  10.08999920  55.58000183
C     9.34000015  10.40999985  55.79999924
C    13.43000031  11.06999969  56.70000076
C    14.14999962  10.50000000  55.61999893
C    15.52000046  10.29000092  55.54999924
C     5.58000040   9.76000023  56.26999664
H     5.09875202  10.49602699  55.62597275
H    10.07999992   9.21000004  54.19000244
H    11.21000099  11.57999992  58.40999985
H     8.89999962  11.59999943  59.02999878
H     6.58999968  11.03999996  58.55999756
H     7.72000027   9.63999939  54.62999725
H    15.98999977   9.73999977  54.75000000
H     5.23000002   9.76000023  57.30999756
H     5.44000053   8.73000050  55.93000031
S    16.87999916  11.61000061  53.01000214
C    19.57999992  11.85999966  52.38999939
C    18.30000114  11.61000061  51.95000076
C    17.94000053  11.35000038  50.59000015
C    18.96999931  11.28999901  49.66999817
C    20.26000023  11.77000046  49.99000168
C    21.27000046  11.64999962  49.00000000
C    22.53999901  11.94000053  49.45999908
C    22.82999992  12.36999989  50.77999878
C    21.86000061  12.38999939  51.77000046
C    20.52999878  12.09000015  51.36000061
C    16.50000000  11.23000050  50.43000031
C    15.77999973  11.39999962  51.63999939
C    14.40000057  11.57999992  51.75000000
C    24.20000076  12.88000011  51.17000198
H    24.72787666  12.13811684  51.76921463
H    19.84000015  12.09000015  53.41999817
H    18.78999901  11.05000019  48.61999893
H    21.09999847  11.16000080  48.04000092
H    23.31999969  11.92000008  48.70999908
H    22.04000092  12.61999989  52.81000137
H    13.90999985  11.89000034  52.67000198
H    24.77000046  13.09999943  50.26000214
H    23.98999977  13.86000061  51.62000275
S    13.27999973  10.77999973  48.04999924
C    10.51000023  10.84000015  48.70999908
C    11.82999992  10.98000050  49.06000137
C    12.20999908  11.36999989  50.38999939
C    11.18999958  11.42000008  51.31999969
C     9.81999969  11.28999901  50.97000122
C     8.76999950  11.25000000  51.91999817
C     7.46999979  10.98000050  51.53999710
C     7.11000013  10.80000019  50.18000031
C     8.09000015  10.80000019  49.20999908
C     9.43000031  11.05000019  49.61000061
C    13.64999962  11.46999931  50.58000183
C    14.37000084  11.23000050  49.38000107
C    15.75000000  11.17000008  49.23999786
C     5.65000010  10.59999943  49.86999893
H     5.30160618  11.12614441  48.98123932
H    10.21999931  10.39000034  47.76000214
H    11.47999954  11.56999969  52.36000061
H     9.02999973  11.33999920  52.97999954
H     6.72999954  10.93000031  52.32999802
H     7.94000053  10.44999981  48.20000076
H    16.18000031  11.13000011  48.23999786
H     5.12000036  10.78999996  50.80999756
H     5.53999996   9.52000046  49.68999863
