96

S    16.57999992  12.03999996  58.82999802
C    19.37000084  12.05999947  58.27000046
C    18.07999992  11.73999977  57.91999817
C    17.75000000  11.26999950  56.59999847
C    18.71999931  11.18999958  55.61999893
C    20.06999969  11.46000004  55.96000290
C    21.18000031  11.21999931  55.10000229
C    22.47999954  11.36000061  55.52999878
C    22.79000092  11.72000027  56.86999893
C    21.73999977  11.87000084  57.75000000
C    20.38999939  11.84000015  57.30999756
C    16.32999992  11.05999947  56.38999939
C    15.57000065  11.65999985  57.42000198
C    14.19999981  11.87999916  57.29000092
C    24.18999863  12.10999966  57.29999924
H    24.64679718  11.38911724  57.97805786
H    19.59000015  12.65999985  59.15000153
H    18.53000069  10.76000023  54.64000320
H    20.96999931  10.78999996  54.13000107
H    23.28000069  11.25000000  54.80999756
H    21.97999954  12.15999985  58.76999664
H    13.50999928  12.25999928  58.02999878
H    24.82999992  12.30999947  56.43000031
H    24.23000145  13.07000065  57.83000183
S    13.12999916   9.98999977  54.00000000
C    10.40999985  10.06000042  54.61000061
C    11.67000008  10.54999924  54.84000397
C    12.06999969  11.23000050  56.04000092
C    11.10000038  11.42000008  57.00000000
C     9.76000023  10.98999977  56.81000137
C     8.73000050  11.11999989  57.78999710
C     7.44999981  10.71000004  57.52999878
C     7.09999990  10.15999985  56.26999664
C     8.06999969   9.96000004  55.31000137
C     9.42000008  10.29000092  55.59999847
C    13.52000046  11.33999920  56.19999695
C    14.26000023  10.72999954  55.14999771
C    15.64000034  10.65000057  55.24000168
C     5.64000034   9.85000038  56.02000427
H     5.21316051  10.37643528  55.16632080
H    10.06999969   9.50000000  53.74000168
H    11.25000000  11.64999962  58.04999924
H     8.90999985  11.52999973  58.77999878
H     6.75000000  10.81999969  58.34999847
H     7.96000004   9.48000050  54.34000015
H    16.26000023  10.36999893  54.38999939
H     5.09000015  10.01000023  56.95000076
H     5.65999985   8.78000069  55.73999786
S    13.96999931   8.45000076  50.84999847
C    11.31999969   7.96000004  51.38000107
C    12.61999989   7.73999977  51.75000000
C    13.07000065   7.04999971  52.93000031
C    12.03999996   6.65999985  53.76999664
C    10.67999935   6.86999989  53.41999817
C     9.67000008   6.40999985  54.31000137
C     8.31999969   6.51000023  54.08000183
C     7.99000025   7.09999990  52.84000015
C     8.88000011   7.50999975  51.86999893
C    10.26000023   7.55999994  52.23999786
C    14.50000000   7.22000027  53.11999893
C    15.11000061   8.05000019  52.15000153
C    16.39999962   8.56999969  52.23999786
C     6.52999973   7.44999981  52.63000107
H     5.94800138   6.96026945  51.84926987
H    11.14999962   8.56000042  50.48999786
H    12.31999969   6.17999983  54.69999695
H    10.06000042   6.01000023  55.24000168
H     7.53999996   6.19000006  54.77000427
H     8.51000023   8.00000000  50.97999954
H    16.72000122   9.21000004  51.42000198
H     6.00000000   7.21000004  53.55999756
H     6.46000004   8.53999996  52.54000092
S    17.67000008   6.98000002  55.65000153
C    20.36999893   7.48000050  55.02999878
C    19.04000092   7.59000015  54.69999695
C    18.64999962   8.21000004  53.47000122
C    19.51000023   8.73999977  52.51999664
C    20.88000107   8.56999969  52.84999847
C    21.78999901   9.09000015  51.88999939
C    23.12000084   9.21000004  52.21000290
C    23.61999893   8.71999931  53.44999695
C    22.70999908   8.10999966  54.27999878
C    21.31000137   7.96000004  54.08000183
C    17.21999931   8.10000038  53.27000046
C    16.59000015   7.32999992  54.29000092
C    15.29999924   6.83000040  54.20000076
C    25.03999901   8.97999954  53.88000107
H    25.40299225   8.36789513  54.70563126
H    20.62999916   7.02000046  55.97999954
H    19.13999939   9.18000031  51.59999847
H    21.38999939   9.50000000  50.97000122
H    23.68000031   9.85999966  51.53999710
H    23.08000183   7.68000031  55.20999908
H    14.93999958   6.11000013  54.93000031
H    25.17000008  10.05000019  54.03999710
H    25.65000153   8.89999962  52.95999908
