96

S    16.79000092  11.97999954  58.54000092
C    19.45999908  11.98999977  57.84999847
C    18.17000008  11.68000031  57.48000336
C    17.71999931  11.21000099  56.19999695
C    18.76000023  10.98999977  55.31000137
C    20.12000084  11.19999981  55.63000107
C    21.12999916  11.11999989  54.62999725
C    22.43999863  11.43000031  54.92000198
C    22.81999969  11.82000065  56.23000336
C    21.86000061  11.95000076  57.21000290
C    20.50000000  11.64000034  56.95000076
C    16.28000069  11.10999966  56.04999924
C    15.65000057  11.49000072  57.25999832
C    14.27999973  11.72000027  57.29000092
C    24.20000076  12.35000038  56.53999710
H    24.62741280  11.65901470  57.26660538
H    19.77000046  12.46999931  58.76999664
H    18.53000069  10.81999969  54.26000214
H    20.81000137  10.95000076  53.61000061
H    23.15000153  11.39000034  54.09999847
H    22.11999893  12.39999962  58.16999817
H    13.93000031  12.06999969  58.26000214
H    24.80999947  12.50000000  55.63999939
H    24.04000092  13.34000015  56.97999954
S    12.97000027  10.44999981  53.79000092
C    10.26000023  10.65000057  54.48999786
C    11.56999969  10.98000050  54.73999786
C    12.02000046  11.44000053  56.03000259
C    11.05999947  11.61999893  57.00000000
C     9.68999958  11.32999992  56.73999786
C     8.78999996  11.36000061  57.84999847
C     7.46999979  11.02000046  57.68000031
C     7.04999971  10.47999954  56.43000031
C     7.92999983  10.31000042  55.38000107
C     9.26999950  10.75000000  55.48999786
C    13.47000027  11.43000031  56.18000031
C    14.13000011  10.88999939  55.05000305
C    15.51000023  10.72999954  54.94999695
C     5.61999989  10.01999950  56.25999832
H     5.14367485  10.63851166  55.49930191
H    10.05000019  10.15999985  53.54000092
H    11.44999981  11.87999916  57.97999954
H     8.96000004  11.87000084  58.79000092
H     6.71000004  11.31000042  58.37999725
H     7.59999990   9.92999935  54.41999817
H    16.05999947  10.29000092  54.12000275
H     5.17000008  10.25000000  57.22999954
H     5.53999996   8.94999981  56.02000427
S    13.64999962   8.40999985  50.86999893
C    10.95999908   8.07999992  51.51000214
C    12.27000046   7.82999992  51.83000183
C    12.67000008   7.27999973  53.09000015
C    11.69000053   6.76000023  53.90999603
C    10.32999992   7.00000000  53.61000061
C     9.27999973   6.54999971  54.47999954
C     7.96000004   6.81999969  54.20999908
C     7.57000017   7.50999975  53.04000092
C     8.55000019   7.82000017  52.11000061
C     9.92999935   7.68000031  52.41000366
C    14.09999943   7.36999989  53.31999969
C    14.73999977   7.90999985  52.18000031
C    16.10999870   8.13000011  52.11999893
C     6.12999964   7.82000017  52.70000076
H     5.74581909   7.45716238  51.74666214
H    10.65000057   8.61999989  50.61999893
H    12.02000046   6.25000000  54.81999969
H     9.63000011   6.14000034  55.41999817
H     7.27999973   6.57999992  55.01999664
H     8.27999973   8.36000061  51.20999908
H    16.61000061   8.43999958  51.20999908
H     5.42999983   7.55999994  53.50000000
H     6.09000015   8.92000008  52.67000198
S    17.47999954   6.63000011  55.56999969
C    20.12000084   7.34000015  54.88999939
C    18.76000023   7.46999979  54.68000031
C    18.27999878   8.07999992  53.47999954
C    19.19999886   8.50000000  52.52999878
C    20.59000015   8.52000046  52.78999710
C    21.52000046   8.84000015  51.75000000
C    22.85000038   8.60000038  51.97999954
C    23.28000069   8.03999996  53.22000122
C    22.44999886   7.79999971  54.29000092
C    21.05999947   7.90000010  54.00000000
C    16.84999847   7.86999989  53.29000092
C    16.28000069   7.23000002  54.40999985
C    14.89999962   7.00999975  54.40999985
C    24.76000023   7.76000023  53.36999893
H    25.09420204   8.18664169  54.31571960
H    20.51000214   6.88000011  55.79999924
H    18.78000069   8.80000019  51.58000183
H    20.96999931   9.27999973  50.91999817
H    23.54000092   8.92000008  51.20999908
H    22.85000038   7.53000021  55.26000214
H    14.47000027   6.46000004  55.24000168
H    25.29000092   8.26000023  52.55000305
H    24.89999962   6.69000053  53.22999954
