96

S    17.12000084  12.13999939  58.88000107
C    19.70000076  12.27000046  58.13999939
C    18.46999931  11.73999977  57.81000137
C    18.09999847  11.38000011  56.46999741
C    19.09000015  11.36000061  55.50000000
C    20.36999893  11.90999985  55.76000214
C    21.47999954  11.75000000  54.87999725
C    22.75000000  12.13000107  55.24000168
C    23.02000046  12.72999954  56.50000000
C    21.97000122  12.81999969  57.37999725
C    20.65000153  12.36999989  57.09000015
C    16.64999962  11.36000061  56.38000107
C    15.98999977  11.79999924  57.55000305
C    14.60000038  11.89000034  57.69000244
C    24.43000031  13.09999943  56.86999893
H    24.89275360  12.38806820  57.55345535
H    19.90999985  12.74000072  59.09999847
H    18.95000076  10.82999992  54.55999756
H    21.35000038  11.36999989  53.88000107
H    23.55999947  12.10999966  54.51000214
H    22.20999908  12.96000004  58.43000031
H    14.14000034  12.09000015  58.63999939
H    25.12000084  13.25000000  56.03000259
H    24.44000053  14.06999969  57.39999771
S    13.27000046  10.78999996  54.13999939
C    10.57999992  10.75000000  54.87999725
C    11.87999916  11.03999996  55.21999741
C    12.35999966  11.44999981  56.51000214
C    11.35000038  11.57999992  57.44999695
C     9.98000050  11.33999920  57.16999817
C     8.93999958  11.36999989  58.15000153
C     7.63000011  11.03000069  57.94000244
C     7.30999994  10.59999943  56.63000107
C     8.25000000  10.39999962  55.63999939
C     9.57999992  10.85000038  55.87999725
C    13.80000019  11.61000061  56.56999969
C    14.46000004  11.21000099  55.38000107
C    15.84000015  11.06999969  55.27000046
C     5.88999987  10.19999981  56.29000092
H     5.47419596  10.68749523  55.40821075
H    10.43000031  10.14999962  53.97999573
H    11.64999962  11.78999996  58.47000122
H     9.19000053  11.75000000  59.13999939
H     6.83000040  11.03999996  58.68000031
H     8.09000015   9.77999973  54.77000427
H    16.31999969  10.65000057  54.38999939
H     5.28999996  10.44000053  57.18000031
H     5.84999990   9.11000061  56.18999863
S    13.63000011   8.56000042  51.26999664
C    11.02000046   8.14000034  51.93999863
C    12.32999992   7.96000004  52.31999969
C    12.76999950   7.34000015  53.53000259
C    11.82000065   6.94000006  54.45000076
C    10.44000053   7.00999975  54.12000275
C     9.42000008   6.37000036  54.87999725
C     8.13000011   6.40999985  54.43000031
C     7.75000000   7.18999958  53.29999924
C     8.71000004   7.77999973  52.51999664
C    10.07999992   7.63999987  52.87000275
C    14.22999954   7.35000038  53.56999969
C    14.81999969   8.05999947  52.49000168
C    16.10999870   8.56999969  52.61000061
C     6.30000019   7.50999975  53.02000046
H     5.92255592   6.80496216  52.27935410
H    10.65000057   8.60999966  51.03000259
H    12.05000019   6.25999975  55.27000046
H     9.72999954   5.86000013  55.79000092
H     7.40000010   5.86000013  55.00999832
H     8.43999958   8.43000031  51.69000244
H    16.62999916   8.97999954  51.75000000
H     5.75999975   7.36000013  53.96999741
H     6.24000025   8.53999996  52.64999771
S    17.61000061   6.94000006  55.89000320
C    20.20999908   7.67000008  55.25000000
C    18.86999893   7.69999981  54.91000366
C    18.31999969   8.32999992  53.74000168
C    19.19999886   8.90999985  52.84999847
C    20.59000015   8.92000008  53.13000107
C    21.56999969   9.43000031  52.22999954
C    22.92000008   9.27999973  52.43999863
C    23.39999962   8.75000000  53.66000366
C    22.49000168   8.25000000  54.56999969
C    21.07999992   8.30000019  54.33000183
C    16.87999916   8.15999985  53.69999695
C    16.34000015   7.31999969  54.71000290
C    15.01999950   6.90000010  54.64000320
C    24.89000130   8.78000069  53.88999939
H    25.16772461   8.76575851  54.94392776
H    20.52000046   7.16000032  56.14999771
H    18.78999901   9.32999992  51.93999863
H    21.22999954   9.88000011  51.30000305
H    23.51000023   9.61999989  51.59000015
H    22.78000069   7.68000031  55.44000244
H    14.56999969   6.50000000  55.54000092
H    25.31999969   9.67000008  53.41999817
H    25.35000038   7.92000008  53.40000153
