96

S    16.53000069  11.61000061  58.89999771
C    19.29999924  11.46999931  58.33000183
C    18.00000000  11.14999962  58.01000214
C    17.64000130  10.59999943  56.73999786
C    18.57999992  10.47999954  55.73999786
C    19.93999863  10.75000000  56.02000427
C    21.01000023  10.57999992  55.08999634
C    22.30999947  10.90000057  55.38000107
C    22.57999802  11.50000000  56.63999939
C    21.59000015  11.75000000  57.56000137
C    20.26000023  11.28999901  57.30999756
C    16.21000099  10.44000053  56.55000305
C    15.47000027  10.97000027  57.63999939
C    14.11000061  11.25000000  57.62000275
C    24.00000000  11.96000004  56.88999939
H    24.45638466  11.37525463  57.68867493
H    19.52999878  11.97999954  59.26000214
H    18.27000046  10.06999969  54.78000259
H    20.81000137  10.14999962  54.10999680
H    23.12999916  10.62000084  54.72000122
H    21.73000145  12.34000015  58.44999695
H    13.55000019  11.50000000  58.52000427
H    24.61000061  11.90999985  55.97999954
H    23.75000000  12.98999977  57.18000031
S    13.12000084  10.15999985  53.94000244
C    10.38000011  10.22999954  54.45000076
C    11.65999985  10.47999954  54.88999939
C    11.95000076  10.98000050  56.19999695
C    10.88999939  11.23000050  57.06999969
C     9.56999969  10.98999977  56.62000275
C     8.47000027  11.23999977  57.49000168
C     7.18999958  10.88000107  57.12999725
C     6.91999960  10.27999973  55.86999893
C     7.92999983  10.24000072  54.93999863
C     9.27999973  10.44999981  55.31999969
C    13.38000107  11.02000046  56.44000244
C    14.14000034  10.54999924  55.34000015
C    15.48999977  10.25000000  55.35999680
C     5.59000015   9.61000061  55.61999893
H     4.98140144  10.30352020  55.03970718
H    10.24000072   9.76000023  53.48999786
H    11.06999969  11.64999962  58.04999924
H     8.61999989  11.52999973  58.52000427
H     6.35999966  10.97000027  57.83000183
H     7.69000006   9.84000015  53.95000076
H    15.98000050   9.94999981  54.43000031
H     5.23999977   9.35000038  56.62000275
H     5.73000002   8.69000053  55.04000092
S    13.26000023   7.86999989  51.02000427
C    10.59999943   7.51999950  51.72000122
C    11.92000008   7.30999994  52.04000092
C    12.39999962   6.67999983  53.23999786
C    11.39999962   6.23000050  54.09000015
C    10.03000069   6.40999985  53.81000137
C     8.98999977   6.00000000  54.69999695
C     7.65999985   6.10000038  54.38000107
C     7.26999998   6.65999985  53.13999939
C     8.21000004   7.28999996  52.36000061
C     9.59999943   7.13000011  52.64999771
C    13.83999920   6.76999998  53.36999893
C    14.46000004   7.30999994  52.21000290
C    15.81999969   7.59999990  52.19999695
C     5.79999971   6.84000015  52.84999847
H     5.43848372   6.57063532  51.85760117
H    10.21999931   7.92999983  50.79000092
H    11.76000023   5.68000031  54.94999695
H     9.15000057   5.63000011  55.70999908
H     6.90999985   5.65999985  55.02999878
H     8.00000000   7.85000038  51.45000076
H    16.28000069   8.18000031  51.40999603
H     5.15999985   6.35999966  53.60000229
H     5.69000006   7.92000008  53.00000000
S    17.11000061   6.54999971  55.84000015
C    19.78999901   6.89000034  55.10000229
C    18.45999908   7.00999975  54.79000092
C    17.92000008   7.60999966  53.60000229
C    18.93000031   7.96999979  52.72999573
C    20.31999969   7.92000008  52.97999954
C    21.28999901   8.36999989  52.04000092
C    22.63999939   8.27999973  52.29999924
C    23.06999969   7.71000004  53.52000427
C    22.19000053   7.25000000  54.47999954
C    20.79000092   7.40000010  54.23999786
C    16.50000000   7.36000013  53.40000153
C    15.90999985   6.77999973  54.54999924
C    14.55000019   6.50000000  54.54999924
C    24.56000137   7.48000050  53.67000198
H    24.88039589   7.86447668  54.63831329
H    20.05000114   6.32000017  55.98999786
H    18.61999893   8.23999977  51.72000122
H    21.01000023   8.76999950  51.06999969
H    23.36999893   8.45000076  51.51000214
H    22.55000114   6.71999979  55.35999680
H    13.94000053   6.17999983  55.38999939
H    25.06999969   7.85000038  52.77999878
H    24.63999939   6.38999987  53.59000397
