96

S    16.51000023  12.48000050  58.62999725
C    19.19999886  12.55000019  57.90000153
C    17.93000031  12.10999966  57.63000107
C    17.54999924  11.44000053  56.43000031
C    18.56999969  11.39000034  55.48999786
C    19.89999962  11.84000015  55.65999985
C    20.93000031  11.40999985  54.77000427
C    22.20999908  11.78999996  55.06000137
C    22.50999832  12.51000023  56.25000000
C    21.55999947  12.88000011  57.16999817
C    20.22999954  12.43000031  56.93000031
C    16.10000038  11.33999920  56.27999878
C    15.39999962  11.84000015  57.41000366
C    14.01999950  12.02999973  57.47000122
C    23.92000008  13.00000000  56.43000031
H    24.36046028  12.43876839  57.25408554
H    19.42000008  12.96000004  58.88000107
H    18.31999969  10.65999985  54.72999954
H    20.69000053  10.82999992  53.88000107
H    22.98000145  11.54000092  54.33000183
H    21.80000114  13.28999996  58.15000153
H    13.53000069  12.48999977  58.30999756
H    24.44000053  12.89999962  55.47000122
H    23.94000053  14.06000042  56.73999786
S    12.88000011  10.54999924  53.94000244
C    10.19000053  10.54999924  54.51000214
C    11.44999981  10.95000076  54.91000366
C    11.82000065  11.38000011  56.22000122
C    10.81999969  11.63000011  57.15000153
C     9.48999977  11.31999969  56.79999924
C     8.36000061  11.50000000  57.63999939
C     7.07999992  11.09000015  57.31999969
C     6.83000040  10.46000004  56.06999969
C     7.88999987  10.27999973  55.20999908
C     9.19000053  10.77000046  55.50000000
C    13.25000000  11.54999924  56.39999771
C    13.94999981  11.09000015  55.25000000
C    15.32999992  11.02000046  55.15999603
C     5.44000053   9.90999985  55.86999893
H     4.94898653  10.43659496  55.05164337
H    10.01000023  10.01000023  53.59000397
H    11.06999969  12.15000057  58.06000137
H     8.43999958  11.87000084  58.66000366
H     6.37000036  11.05000019  58.13999939
H     7.71000004   9.75000000  54.27000046
H    15.73999977  10.67000008  54.20999908
H     4.75000000   9.98999977  56.72999954
H     5.53999996   8.85999966  55.56999969
S    17.05000114  12.63000011  52.72999573
C    19.76000023  12.64999962  52.11000061
C    18.48999977  12.28999996  51.73999786
C    18.19000053  11.77999973  50.44000244
C    19.22999954  11.59000015  49.54999924
C    20.58000183  11.84000015  49.89999771
C    21.65999985  11.56999969  49.02000046
C    22.95000076  11.73999977  49.47999954
C    23.18000031  12.32999992  50.75000000
C    22.15999985  12.60000038  51.63000107
C    20.82999992  12.32999992  51.23000336
C    16.75000000  11.76000023  50.22999573
C    16.02000046  12.28999996  51.32999802
C    14.63999939  12.25999928  51.37000275
C    24.54000092  12.93000031  51.03000259
H    25.06073380  12.40213299  51.82893372
H    19.93000031  13.30000019  52.97000122
H    18.97999954  11.21999931  48.55999756
H    21.57999992  11.13999939  48.02000046
H    23.80000114  11.69999981  48.81000137
H    22.39999962  13.07999992  52.56999969
H    14.11999893  12.38000011  52.31999969
H    25.13999939  12.86000061  50.10000229
H    24.47000122  13.96000004  51.38999939
S    13.64999962  10.95999908  47.75000000
C    10.92000008  11.05999947  48.27999878
C    12.20000076  11.28999901  48.72000122
C    12.50000000  11.77000046  50.04000092
C    11.44999981  11.89000034  50.93000031
C    10.11999989  11.61000061  50.50000000
C     9.03999996  11.73999977  51.40999603
C     7.75000000  11.54999924  50.97000122
C     7.42999983  11.05999947  49.68000031
C     8.47000027  10.90999985  48.79000092
C     9.81999969  11.14999962  49.16999817
C    13.94000053  11.89000034  50.21999741
C    14.70000076  11.47999954  49.09000015
C    16.07999992  11.33999920  49.06999969
C     5.98000002  10.71000004  49.43000031
H     5.45388746  11.25744057  48.64794159
H    10.77999973  10.80000019  47.22999954
H    11.61999893  12.28999996  51.91999817
H     9.25000000  12.05000019  52.43000031
H     6.94000006  11.80999947  51.65000153
H     8.25000000  10.52000046  47.80000305
H    16.68000031  11.00999928  48.23999786
H     5.51999998  10.78999996  50.41999817
H     5.98000002   9.64999962  49.13999939
