96

S    16.51000023  12.25999928  58.83999634
C    19.18000031  12.35999966  58.20000076
C    17.90999985  12.02999973  57.77000046
C    17.48999977  11.61000061  56.46999741
C    18.50000000  11.33999920  55.56000137
C    19.81999969  11.72999954  55.89000320
C    20.92000008  11.46999931  55.02999878
C    22.23999977  11.72999954  55.31000137
C    22.53000069  12.28999996  56.58000183
C    21.52000046  12.50000000  57.48000336
C    20.15000153  12.27000046  57.18000031
C    16.03999901  11.52999973  56.38000107
C    15.34000015  11.92999935  57.55000305
C    13.94999981  12.03999996  57.58999634
C    23.92999840  12.75000000  56.91999817
H    24.41927338  12.09763527  57.64327621
H    19.52000046  12.81000042  59.13999939
H    18.29000092  10.98999977  54.54999924
H    20.61000061  11.03999996  54.08000183
H    23.02000046  11.59000015  54.55999756
H    21.68000031  12.94000053  58.46000290
H    13.52000046  12.35999966  58.53000259
H    24.60000038  12.68000031  56.04999924
H    23.88000107  13.80000019  57.21000290
S    12.79000092  10.85000038  53.97999573
C    10.08999920  11.03999996  54.68999863
C    11.40999985  11.21000099  55.04000092
C    11.73999977  11.56999969  56.38000107
C    10.77000046  11.77000046  57.34000397
C     9.39999962  11.54999924  57.08000183
C     8.38000011  11.47999954  58.08000183
C     7.11000013  11.05999947  57.75000000
C     6.76000023  10.81999969  56.38999939
C     7.77999973  10.77000046  55.47000122
C     9.11999989  11.17000008  55.72000122
C    13.19000053  11.72000027  56.45999908
C    13.89000034  11.31999969  55.30000305
C    15.27999973  11.28999901  55.24000168
C     5.33999968  10.44000053  56.04999924
H     4.93524170  10.95127392  55.17657471
H     9.77000046  10.51000023  53.80000305
H    11.13000011  11.95000076  58.34999847
H     8.55000019  11.63000011  59.13999939
H     6.39999962  10.93000031  58.55999756
H     7.55999994  10.52999973  54.43000031
H    15.73999977  10.93000031  54.31999969
H     4.69000006  10.67000008  56.90000153
H     5.19999981   9.35999966  55.90999985
S    16.79000092  12.63000011  52.63999939
C    19.51000023  12.43999958  52.09000015
C    18.22000122  12.18999958  51.68000031
C    17.90999985  11.73999977  50.34999847
C    18.94000053  11.54999924  49.45000076
C    20.28000069  11.69000053  49.86999893
C    21.37000084  11.59999943  48.95999908
C    22.67000008  11.84999943  49.34000015
C    22.93000031  12.27000046  50.66999817
C    21.94000053  12.28999996  51.60999680
C    20.58000183  12.11999989  51.20999908
C    16.47999954  11.78999996  50.12000275
C    15.76000023  12.28000069  51.24000168
C    14.37999916  12.48999977  51.18000031
C    24.37999916  12.61000061  50.93000031
H    24.87814903  11.98375416  51.67010880
H    19.76000023  12.71000004  53.11000061
H    18.78000069  11.46000004  48.37999725
H    21.17000198  11.51000023  47.88999939
H    23.43000031  11.77999973  48.55999756
H    22.04999924  12.57999992  52.64999771
H    13.82999992  12.68000031  52.09000015
H    24.93000031  12.53999901  49.98000336
H    24.50000000  13.63999939  51.27999878
S    13.42000008  10.98000050  47.62000275
C    10.72999954  11.05000019  48.22999954
C    12.01000023  11.42000008  48.59000397
C    12.25000000  12.09000015  49.84000397
C    11.28000069  12.18999958  50.80999756
C     9.96000004  11.78999996  50.47000122
C     8.86999989  12.07999992  51.33999634
C     7.57000017  11.84000015  50.98999786
C     7.32999992  11.40999985  49.65999985
C     8.32999992  11.11999989  48.75000000
C     9.68000031  11.28999901  49.15000153
C    13.68999958  12.23000050  49.99000168
C    14.42000008  11.72999954  48.88000107
C    15.78999996  11.51000023  48.93000031
C     5.98000002  10.80000019  49.36000061
H     5.49525499  11.27048779  48.50457001
H    10.62000084  10.48999977  47.30999756
H    11.46999931  12.61999989  51.79000092
H     9.15000057  12.51999950  52.29999924
H     6.81999969  11.87000084  51.77000046
H     8.18000031  10.57000065  47.81999969
H    16.25000000  10.88999939  48.15999985
H     5.42999983  10.97000027  50.30000305
H     6.19000006   9.72999954  49.27000046
