96

S    16.44000053  11.98999977  58.80000305
C    19.19000053  11.78999996  58.18999863
C    17.86999893  11.57999992  57.84000015
C    17.51000023  11.05000019  56.56000137
C    18.54999924  10.80000019  55.68000031
C    19.90999985  11.10999966  55.93000031
C    20.89999962  10.86999989  54.93000031
C    22.20000076  11.23000050  55.22999573
C    22.53999901  11.84000015  56.45999908
C    21.59000015  11.90999985  57.47000122
C    20.22000122  11.63000011  57.22999954
C    16.07999992  10.88999939  56.38000107
C    15.38000011  11.35000038  57.52999878
C    14.00000000  11.43000031  57.50000000
C    23.94000053  12.31999969  56.76000214
H    24.50732422  11.61084461  57.36278152
H    19.40999985  12.13999939  59.20000076
H    18.26000023  10.44000053  54.69999695
H    20.52000046  10.52999973  53.96999741
H    22.93999863  11.18000031  54.43000031
H    21.80000114  12.17000008  58.50000000
H    13.47000027  11.72000027  58.40999985
H    24.47000122  12.46999931  55.81999969
H    23.95999908  13.34000015  57.15999985
S    12.89000034  10.21000004  53.92000198
C    10.21000004  10.06999969  54.59999847
C    11.46999931  10.47000027  54.95999908
C    11.82000065  10.95999908  56.25999832
C    10.76000023  11.16000080  57.12999725
C     9.48000050  10.62000084  56.86000061
C     8.47000027  10.67000008  57.85999680
C     7.17000008  10.36000061  57.54000092
C     6.80000019  10.01000023  56.20999908
C     7.77999973   9.84000015  55.27000046
C     9.15000057  10.14999962  55.54000092
C    13.27000046  11.03000069  56.38000107
C    14.00000000  10.60999966  55.24000168
C    15.39000034  10.52999973  55.20999908
C     5.38000011   9.59000015  55.90000153
H     4.82399321  10.25293159  55.23706818
H     9.96000004   9.59000015  53.66000366
H    11.06999969  11.44999981  58.13000107
H     8.82999992  10.92000008  58.85000229
H     6.40999985  10.51000023  58.30999756
H     7.51999950   9.31999969  54.34999847
H    15.90999985  10.26999950  54.29999924
H     4.86999989   9.52999973  56.86999893
H     5.44000053   8.65999985  55.33000183
S    16.67000008  12.43999958  52.60000229
C    19.34999847  12.56000042  51.95999908
C    18.09999847  12.11999989  51.59999847
C    17.71999931  11.71000004  50.27999878
C    18.81999969  11.50000000  49.45000076
C    20.15999985  11.76000023  49.79000092
C    21.25000000  11.69000053  48.87000275
C    22.50999832  12.13000107  49.20999908
C    22.76000023  12.69999981  50.48999786
C    21.70000076  12.97000027  51.31999969
C    20.42000008  12.43000031  51.04000092
C    16.28999901  11.56000042  50.11000061
C    15.57999992  11.94000053  51.27999878
C    14.19999981  11.95000076  51.37000275
C    24.15999985  13.09999943  50.90999985
H    24.60915947  12.40130806  51.61582184
H    19.43000031  13.26000023  52.80000305
H    18.53000069  11.23000050  48.43999863
H    21.02999878  11.43000031  47.84000015
H    23.34000015  12.00000000  48.53000259
H    21.84000015  13.57999992  52.21000290
H    13.80000019  12.30000019  52.31999969
H    24.79000092  13.25000000  50.01999664
H    24.14999962  14.11000061  51.33999634
S    13.02000046  10.90000057  47.70999908
C    10.34000015  11.14999962  48.34000015
C    11.64000034  11.26000023  48.76999664
C    11.98999977  11.61000061  50.11000061
C    11.00000000  11.82000065  51.04999924
C     9.64999962  11.59999943  50.68999863
C     8.67999935  11.46999931  51.72000122
C     7.42999983  11.00999928  51.39999771
C     7.03000021  10.77999973  50.06000137
C     7.99000025  10.85000038  49.08000183
C     9.32999992  11.26999950  49.33000183
C    13.43999958  11.59000015  50.25000000
C    14.11999893  11.17000008  49.06999969
C    15.50000000  11.17000008  49.02000046
C     5.59000015  10.42000008  49.75999832
H     5.24128628  10.96797848  48.88465881
H    10.06000042  10.73999977  47.36999893
H    11.23999977  12.05000019  52.09000015
H     8.93999958  11.56999969  52.77000046
H     6.71000004  10.84000015  52.19999695
H     7.64999962  10.59999943  48.08000183
H    15.93999958  10.97000027  48.04000092
H     5.09000015  10.69000053  50.70000076
H     5.42999983   9.32999992  49.68999863
