96

S    16.67000008  12.10000038  58.64999771
C    19.34999847  12.51000023  57.84000015
C    18.09999847  11.97000027  57.61000061
C    17.76000023  11.46000004  56.31000137
C    18.78999901  11.13999939  55.44000244
C    20.09000015  11.61000061  55.76000214
C    21.17000198  11.39999962  54.86000061
C    22.46000099  11.76000023  55.18000031
C    22.81999969  12.36999989  56.40999603
C    21.77999878  12.68000031  57.25000000
C    20.43000031  12.35000038  56.93999863
C    16.32999992  11.30000019  56.11000061
C    15.62000084  11.73999977  57.25999832
C    14.22999954  11.79999924  57.30999756
C    24.21999931  12.81999969  56.75000000
H    24.66808510  12.17276287  57.50392532
H    19.48999977  12.93000031  58.82999802
H    18.61999893  10.69000053  54.47000122
H    20.95000076  11.10000038  53.83999634
H    23.26999855  11.64999962  54.45999908
H    21.91999817  13.02000046  58.27999878
H    13.68999958  12.05000019  58.20999908
H    24.86000061  12.77999973  55.86000061
H    24.13000107  13.86999989  57.02999878
S    13.09000015  10.43000031  53.79000092
C    10.42000008  10.52999973  54.40999985
C    11.69999981  10.80000019  54.82999802
C    12.07999992  11.17000008  56.17000198
C    11.03999996  11.32999992  57.06999969
C     9.72999954  11.03000069  56.63999939
C     8.73000050  11.02000046  57.65999603
C     7.48000050  10.51000023  57.39999771
C     7.07999992  10.26000023  56.05999756
C     7.99000025  10.26999950  55.02999878
C     9.34000015  10.59000015  55.33000183
C    13.53000069  11.28999901  56.20999908
C    14.25000000  10.88999939  55.06000137
C    15.62999916  10.80999947  55.00000000
C     5.63000011   9.96999931  55.70999908
H     5.13261175  10.72318745  55.09892273
H    10.22999954  10.10000038  53.43000031
H    11.21999931  11.72999954  58.06000137
H     9.01000023  11.31999969  58.67000198
H     6.83000040  10.34999943  58.25000000
H     7.64999962   9.88000011  54.06999969
H    16.11999893  10.52000046  54.06999969
H     5.07000017   9.89999962  56.65000153
H     5.53999996   8.98999977  55.22999573
S    17.28000069  12.50000000  52.70000076
C    19.97999954  12.58999920  52.11999893
C    18.71999931  12.23999977  51.70000076
C    18.42000008  11.61999893  50.44000244
C    19.43000031  11.42000008  49.51000214
C    20.73999786  11.78999996  49.88999939
C    21.84999847  11.59000015  49.02000046
C    23.12999916  12.02999973  49.29000092
C    23.36999893  12.57999992  50.56999969
C    22.36000061  12.74000072  51.49000168
C    21.01000023  12.38999939  51.17000198
C    16.98999977  11.43000031  50.25000000
C    16.26000023  11.90000057  51.38000107
C    14.88999939  12.10000038  51.36000061
C    24.79000092  12.97999954  50.90000153
H    25.13764763  12.40531731  51.75847626
H    20.23999977  13.00000000  53.09000015
H    19.19999886  10.92000008  48.56999969
H    21.70000076  11.09000015  48.06999969
H    23.90000153  11.92000008  48.53000259
H    22.63000107  13.15000057  52.45999908
H    14.26000023  12.35999966  52.21000290
H    25.35000038  12.69999981  50.00000000
H    24.79999924  14.06999969  51.00000000
S    13.89999962  10.92000008  47.72999573
C    11.14999962  11.03999996  48.22999954
C    12.43000031  11.40999985  48.59000397
C    12.76999950  11.92999935  49.87999725
C    11.75000000  12.10999966  50.79000092
C    10.40999985  11.82999992  50.41999817
C     9.31999969  12.09000015  51.30000305
C     8.01999950  11.77999973  51.00000000
C     7.76999998  11.09000015  49.79000092
C     8.75000000  10.92000008  48.82999802
C    10.08999920  11.33999920  49.10999680
C    14.19000053  11.84000015  50.17000198
C    14.96000099  11.33999920  49.09000015
C    16.31999969  11.05000019  49.09000015
C     6.44000006  10.44000053  49.50000000
H     5.79227972  10.87418652  48.73839569
H    10.93999958  10.42000008  47.36000061
H    11.95000076  12.38000011  51.83000183
H     9.61000061  12.51000023  52.25999832
H     7.25000000  12.06999969  51.72000122
H     8.57999992  10.31999969  47.95000076
H    16.87000084  10.78999996  48.18000031
H     5.89999962  10.36999893  50.45000076
H     6.75000000   9.40999985  49.27999878
