96

S    17.13999939  12.42000008  58.79000092
C    19.78999901  12.65999985  58.00000000
C    18.47999954  12.41000080  57.63999939
C    18.12999916  11.72999954  56.43000031
C    19.11000061  11.39000034  55.52000046
C    20.45999908  11.56000042  55.90999985
C    21.48999977  11.39000034  54.94999695
C    22.82999992  11.51999950  55.25000000
C    23.19999886  12.10000038  56.50000000
C    22.20999908  12.41000080  57.39999771
C    20.81999969  12.20999908  57.14000320
C    16.69000053  11.50000000  56.35000229
C    16.01000023  11.87999916  57.52999878
C    14.61999989  11.97999954  57.57999802
C    24.61999893  12.53000069  56.77000046
H    24.99686623  11.76204681  57.44551468
H    20.09000015  13.17999935  58.90999603
H    18.85000038  11.14999962  54.48999786
H    21.18999863  11.33999920  53.90999603
H    23.54000092  11.51999950  54.43999863
H    22.60000038  12.97000027  58.23999786
H    14.19999981  12.17000008  58.55999756
H    25.20000076  12.64000034  55.84999847
H    24.64999962  13.52000046  57.25999832
S    13.50999928  11.03000069  53.88000107
C    10.80000019  10.85999966  54.62999725
C    12.10999966  11.13000011  54.95999908
C    12.44999981  11.51999950  56.30000305
C    11.44999981  11.73999977  57.22999954
C    10.11000061  11.46000004  56.88000107
C     9.09000015  11.46999931  57.88000107
C     7.78999996  11.10000038  57.60000229
C     7.44000006  10.59999943  56.31999969
C     8.38999939  10.62999916  55.33000183
C     9.73999977  11.00000000  55.56999969
C    13.89000034  11.61000061  56.44000244
C    14.59000015  11.31000042  55.25000000
C    15.98000050  11.23000050  55.18000031
C     5.98000002  10.25000000  56.10000229
H     5.62445927  10.71931362  55.18270493
H    10.70000076  10.44999981  53.62999725
H    11.68000031  12.02999973  58.26000214
H     9.31999969  11.77000046  58.88999939
H     7.00000000  11.11999989  58.34999847
H     8.19000053  10.14000034  54.38000107
H    16.44000053  11.05000019  54.20999908
H     5.38999987  10.39000034  57.01000214
H     6.09000015   9.18000031  55.90999985
S    17.13999939  12.98999977  52.63000107
C    19.84000015  12.90999985  52.06999969
C    18.55999947  12.60000038  51.65000153
C    18.20999908  12.13000107  50.34000015
C    19.29999924  11.90999985  49.52000046
C    20.63999939  12.20000076  49.88999939
C    21.68999863  11.92000008  48.97999573
C    23.00000000  12.13000107  49.34999847
C    23.34000015  12.69999981  50.61000061
C    22.30999947  13.00000000  51.46999741
C    20.95000076  12.68000031  51.20999908
C    16.76000023  12.06999969  50.20000076
C    16.03999901  12.56999969  51.31000137
C    14.65000057  12.69999981  51.38000107
C    24.71999931  13.15999985  50.98999786
H    25.31278419  12.41901779  51.52632904
H    19.96999931  13.31999969  53.06000137
H    19.29999924  11.77999973  48.43999863
H    21.45000076  11.61000061  47.97000122
H    23.78999901  12.05000019  48.61000061
H    22.63000107  13.31999969  52.45999908
H    14.27000046  13.04999924  52.34000397
H    25.34000015  13.27000046  50.10000229
H    24.70000076  14.14000034  51.47999573
S    13.50000000  11.33999920  47.83000183
C    10.77999973  11.39999962  48.55999756
C    12.09000015  11.72000027  48.83999634
C    12.50000000  12.23999977  50.11000061
C    11.46000004  12.38999939  51.00999832
C    10.10000038  12.13999939  50.68999863
C     9.06999969  12.22000027  51.66999817
C     7.76000023  11.89000034  51.43000031
C     7.39000034  11.30000019  50.19000244
C     8.34000015  11.17000008  49.20000076
C     9.68000031  11.56999969  49.43999863
C    13.94000053  12.42000008  50.20999908
C    14.61999989  11.94000053  49.06000137
C    15.98999977  11.71000004  49.09000015
C     5.96000004  10.88000107  49.93999863
H     5.55007648  11.51608849  49.15549088
H    10.52000046  11.03999996  47.56999969
H    11.65999985  12.90999985  51.93999863
H     9.44000053  12.39999962  52.68000031
H     6.98000002  11.85999966  52.18999863
H     8.02999973  10.67999935  48.27000046
H    16.43000031  11.26999950  48.20000076
H     5.36000013  11.03000069  50.84000015
H     6.00000000   9.78999996  49.80999756
