96

S    16.44000053  11.84999943  59.01000214
C    19.19000053  11.76000023  58.68999863
C    17.94999886  11.44000053  58.18000031
C    17.65999985  10.93000031  56.86999893
C    18.75000000  10.73999977  56.04999924
C    20.03999901  11.10999966  56.49000168
C    21.09000015  11.05999947  55.52999878
C    22.39000130  11.38000011  55.84999847
C    22.60999870  11.90000057  57.15000153
C    21.63999939  11.97999954  58.11999893
C    20.29999924  11.61000061  57.81999969
C    16.25000000  10.92000008  56.51000214
C    15.47000027  11.44999981  57.56999969
C    14.09999943  11.69000053  57.56000137
C    23.98999977  12.43000031  57.45999908
H    24.51783180  11.88790131  58.24461365
H    19.26000023  12.10000038  59.72000122
H    18.72999954  10.15999985  55.13000107
H    20.82999992  10.67000008  54.54999924
H    23.16999817  11.31000042  55.10000229
H    21.84000015  12.38999939  59.09999847
H    13.52000046  11.98999977  58.43000031
H    24.63999939  12.46999931  56.56999969
H    23.92000008  13.48000050  57.77000046
S    13.17999935  10.40999985  53.88000107
C    10.39999962  10.39000034  54.47000122
C    11.69999981  10.67999935  54.81999969
C    12.02000046  11.17000008  56.12999725
C    11.03000069  11.42000008  57.05999756
C     9.68999958  11.13999939  56.72000122
C     8.64000034  11.18999958  57.69000244
C     7.35000038  10.84000015  57.36000061
C     7.04999971  10.39999962  56.04999924
C     8.01000023  10.42000008  55.06000137
C     9.36999989  10.65999985  55.40999985
C    13.45000076  11.28000069  56.38999939
C    14.19999981  10.85000038  55.27000046
C    15.57000065  10.64000034  55.31999969
C     5.69000006   9.77999973  55.81999969
H     5.15670013  10.29907894  55.02360153
H    10.19999981  10.06000042  53.46000290
H    11.21999931  11.69999981  58.09000015
H     8.85000038  11.67000008  58.63999939
H     6.50000000  10.76000023  58.02999878
H     7.71000004  10.06999969  54.06999969
H    16.13999939  10.22999954  54.48999786
H     5.22000027   9.88000011  56.79999924
H     5.98999977   8.76000023  55.56000137
S    17.19000053  12.02000046  52.97999954
C    19.89999962  12.15999985  52.43000031
C    18.63000107  11.92000008  51.95000076
C    18.30000114  11.69000053  50.56999969
C    19.37999916  11.52999973  49.72000122
C    20.71000099  11.68000031  50.18000031
C    21.81999969  11.73999977  49.29000092
C    23.08000183  12.13999939  49.68000031
C    23.28000069  12.64000034  50.98999786
C    22.21999931  12.72999954  51.86999893
C    20.98999977  12.09000015  51.52999878
C    16.86000061  11.61000061  50.38999939
C    16.11999893  11.82999992  51.56999969
C    14.77000046  12.18999958  51.55000305
C    24.63000107  13.19000053  51.38999939
H    25.14404106  12.59742546  52.14677811
H    20.05000114  12.63000011  53.40000153
H    19.14999962  11.31000042  48.68000031
H    21.52000046  11.61000061  48.25000000
H    23.87000084  12.05000019  48.94000244
H    22.23999977  13.17000008  52.85999680
H    14.30999947  12.50000000  52.48000336
H    25.29999924  13.35000038  50.52999878
H    24.34999847  14.14000034  51.86000061
S    13.73000050  10.64000034  48.04000092
C    11.03999996  10.80999947  48.57999802
C    12.30999947  11.23000050  48.92000198
C    12.60000038  11.80999947  50.20000076
C    11.57999992  12.02999973  51.10000229
C    10.29000092  11.50000000  50.83000183
C     9.19000053  11.69000053  51.72000122
C     7.92999983  11.28000069  51.36000061
C     7.63000011  10.69000053  50.10000229
C     8.67999935  10.52999973  49.22999954
C    10.01000023  10.93000031  49.54000092
C    14.04000092  11.87000084  50.40000153
C    14.75999928  11.33999920  49.29999924
C    16.13999939  11.25000000  49.23999786
C     6.24000025  10.11000061  49.91000366
H     5.69712210  10.75288105  49.21712112
H    10.80000019  10.15999985  47.75000000
H    11.82999992  12.46999931  52.05999756
H     9.25000000  12.15000057  52.70000076
H     7.21000004  11.36999989  52.15999985
H     8.48999977   9.85000038  48.40000153
H    16.61999893  10.85000038  48.34999847
H     5.78999996  10.06000042  50.90999985
H     6.32000017   9.06999969  49.55999756
