96

S    16.60000038  12.02999973  58.92000198
C    19.29000092  12.01000023  58.09000015
C    17.97999954  11.63000011  57.88999939
C    17.57999992  11.11999989  56.60999680
C    18.51000023  10.98000050  55.59999847
C    19.88000107  11.26000023  55.80999756
C    20.88000107  11.03999996  54.81999969
C    22.20000076  11.32999992  55.08999634
C    22.59000015  11.77999973  56.38000107
C    21.64999962  12.02000046  57.35000229
C    20.27000046  11.76000023  57.09999847
C    16.13000107  11.18000031  56.51000214
C    15.42000008  11.57999992  57.67000198
C    14.02999973  11.59000015  57.75000000
C    24.04000092  12.03999996  56.72999954
H    24.44031715  11.44667530  57.55207825
H    19.55999947  12.44999981  59.05000305
H    18.18000031  10.67999935  54.61000061
H    20.59000015  10.82999992  53.79000092
H    22.90999985  11.21999931  54.27999878
H    21.94000053  12.30999947  58.34999847
H    13.57999992  11.72999954  58.73000336
H    24.76000023  11.97999954  55.90000153
H    24.05999947  13.10999966  56.97999954
S    12.94999981  10.51000023  54.09999847
C    10.24000072  10.44999981  54.78000259
C    11.54000092  10.71000004  55.17000198
C    11.85999966  11.05999947  56.52000046
C    10.76000023  11.21000099  57.32999802
C     9.42000008  10.82999992  57.04999924
C     8.38000011  10.97000027  58.01000214
C     7.09999990  10.67999935  57.57999802
C     6.80000019  10.32999992  56.24000168
C     7.81000042  10.17000008  55.31000137
C     9.15000057  10.48999977  55.68000031
C    13.30000019  11.26000023  56.59999847
C    14.04000092  10.95000076  55.43000031
C    15.42000008  10.84000015  55.35999680
C     5.35000038  10.07999992  55.89000320
H     4.98700809  10.60669422  55.00743484
H    10.03999901  10.03999901  53.80000305
H    10.95999908  11.64000034  58.30999756
H     8.56000042  11.31999969  59.02000046
H     6.34999990  10.75000000  58.36000061
H     7.46000004  10.06999969  54.29000092
H    15.88999939  10.36999893  54.50000000
H     4.82999992  10.44000053  56.79000092
H     5.15999985   9.00000000  55.79000092
S    13.26000023   8.55000019  51.17000198
C    10.53999996   8.10000038  51.77000046
C    11.87000084   7.97999954  52.11000061
C    12.28000069   7.36999989  53.34000015
C    11.35000038   6.81999969  54.20999908
C     9.98000050   6.98999977  53.93000031
C     8.96000004   6.42000008  54.75000000
C     7.63000011   6.63999987  54.45999908
C     7.25000000   7.23000002  53.22000122
C     8.21000004   7.69000006  52.35000229
C     9.57999992   7.59999990  52.69000244
C    13.73000050   7.36999989  53.44999695
C    14.42000008   8.05999947  52.42000198
C    15.78999996   8.26000023  52.44999695
C     5.78999996   7.55000019  52.95999908
H     5.32033539   6.94512892  52.18434143
H    10.21000004   8.71999931  50.93999863
H    11.63000011   6.23000050  55.07999802
H     9.23999977   5.80999947  55.59999847
H     6.90000010   6.44000006  55.24000168
H     7.94000053   8.00000000  51.35000229
H    16.29999924   8.73000050  51.62000275
H     5.19000006   7.50999975  53.88000107
H     5.78999996   8.61999989  52.74000168
S    16.90999985   6.69000053  55.90000153
C    19.68000031   7.02000046  55.31000137
C    18.36000061   7.23999977  55.02999878
C    17.94999886   7.82999992  53.79000092
C    18.89999962   8.34000015  52.93000031
C    20.27000046   8.22000027  53.25000000
C    21.25999832   8.82999992  52.42000198
C    22.56999969   8.40999985  52.55000305
C    22.98999977   7.64999962  53.67000198
C    22.07999992   7.36999989  54.65000153
C    20.68000031   7.55000019  54.45000076
C    16.51000023   7.76999998  53.54999924
C    15.80000019   7.09999990  54.58000183
C    14.45000076   6.78999996  54.50000000
C    24.47999954   7.69000006  53.93000031
H    24.77906799   8.53024197  54.55661774
H    20.03999901   6.54999971  56.23000336
H    18.63000107   8.89000034  52.02000046
H    20.95999908   9.52999973  51.65000153
H    23.38999939   8.64000034  51.88000107
H    22.32000160   6.90000010  55.61000061
H    13.97999954   6.19999981  55.28999710
H    25.03999901   7.78999996  52.97999954
H    24.67000008   6.71999979  54.40999985
