96

S    16.36999893  11.63000011  59.01000214
C    19.07999992  11.82000065  58.36000061
C    17.81999969  11.36000061  58.02999878
C    17.48999977  10.88999939  56.72000122
C    18.48999977  10.80000019  55.76000214
C    19.81999969  11.18999958  56.07999802
C    20.88000107  11.19999981  55.13000107
C    22.18000031  11.46000004  55.50000000
C    22.46000099  11.80999947  56.84999847
C    21.45000076  11.97999954  57.77000046
C    20.10999870  11.69000053  57.38999939
C    16.05999947  10.82999992  56.50000000
C    15.32999992  11.28999901  57.62000275
C    13.96999931  11.61999893  57.62000275
C    23.90000153  12.13999939  57.15000153
H    24.38534927  11.59041405  57.95653534
H    19.27999878  12.20000076  59.34999847
H    18.23999977  10.51000023  54.75000000
H    20.59999847  11.10000038  54.08000183
H    22.93000031  11.50000000  54.72000122
H    21.56999969  12.38000011  58.76999664
H    13.42000008  11.85999966  58.52000427
H    24.44999886  11.97999954  56.20999908
H    23.94000053  13.20000076  57.41000366
S    12.90999985  10.34000015  53.99000168
C    10.21999931  10.44000053  54.51000214
C    11.47999954  10.73999977  54.95999908
C    11.82999992  11.13999939  56.29000092
C    10.80999947  11.28000069  57.21000290
C     9.48000050  10.98000050  56.81999969
C     8.38999939  11.13000011  57.72999573
C     7.09000015  10.80000019  57.45999908
C     6.77999973  10.57000065  56.09000397
C     7.79999971  10.52000046  55.15999603
C     9.18000031  10.70000076  55.44000244
C    13.27000046  11.32999992  56.44000244
C    13.96999931  10.77000046  55.34000015
C    15.32999992  10.48999977  55.34999847
C     5.36999989  10.17000008  55.70000076
H     4.96315527  10.84093571  54.94341278
H     9.89000034   9.92000008  53.61000061
H    10.90999985  11.50000000  58.27000046
H     8.64000034  11.38000011  58.75999832
H     6.32999992  10.67999935  58.22999954
H     7.57000017  10.18000031  54.15999985
H    15.86999989  10.19000053  54.45000076
H     4.72000027  10.17000008  56.59000015
H     5.36000013   9.15999985  55.27000046
S    13.43999958   8.27999973  50.83000183
C    10.77999973   7.94000053  51.47999573
C    12.09000015   7.63000011  51.77000046
C    12.48000050   7.00999975  53.01000214
C    11.44999981   6.75000000  53.88999939
C    10.08999920   7.07000017  53.67000198
C     9.10000038   6.89000034  54.68000031
C     7.79999971   7.14999962  54.29999924
C     7.46000004   7.82000017  53.09000015
C     8.46000004   8.30000019  52.28000259
C     9.76000023   7.75000000  52.43999863
C    13.93000031   6.98000002  53.09999847
C    14.56999969   7.68000031  52.04999924
C    15.88999939   8.10999966  52.14000320
C     6.03999996   7.86999989  52.57999802
H     5.76258278   7.31516600  51.68372726
H    10.39999962   8.64000034  50.75000000
H    11.71000004   6.39999962  54.88999939
H     9.35999966   6.39999962  55.61000061
H     6.96000004   6.76999998  54.86999893
H     8.27999973   8.86999989  51.37000275
H    16.38000107   8.78000069  51.44000244
H     5.36000013   7.69999981  53.43000031
H     5.73999977   8.90999985  52.38999939
S    17.20999908   6.67000008  55.59999847
C    19.85999870   7.40000010  55.07999802
C    18.54999924   7.36000013  54.66999817
C    18.09999847   7.95000029  53.44999695
C    19.02000046   8.65999985  52.70000076
C    20.38000107   8.69000053  53.06999969
C    21.38000107   9.00000000  52.09999847
C    22.70999908   8.90999985  52.42000198
C    23.12999916   8.36999989  53.66000366
C    22.20000076   8.00000000  54.59999847
C    20.81000137   8.14999962  54.33000183
C    16.67000008   7.73000002  53.23999786
C    16.06999969   6.96000004  54.27000046
C    14.68999958   6.80999994  54.27000046
C    24.54000092   7.88999987  53.93000031
H    25.02501488   8.39641190  54.76451111
H    20.13000107   6.70000029  55.87999725
H    18.71999931   9.00000000  51.72000122
H    21.14000130   9.26000023  51.06999969
H    23.46999931   9.15999985  51.68000031
H    22.56000137   7.31999969  55.37000275
H    14.22000027   6.52999973  55.20999908
H    25.12000084   8.10000038  53.02000046
H    24.61000061   6.80999994  54.12000275
