96

S    16.54999924  12.17000008  58.72000122
C    19.22999954  11.92000008  58.13999939
C    17.94000053  11.57999992  57.78999710
C    17.56999969  11.06999969  56.51000214
C    18.53999901  11.02000046  55.52999878
C    19.88999939  11.25000000  55.89000320
C    20.96999931  10.98000050  54.99000168
C    22.21999931  11.49000072  55.27000046
C    22.59000015  12.03999996  56.52000046
C    21.59000015  12.18999958  57.45999908
C    20.26000023  11.77000046  57.18000031
C    16.11999893  11.06999969  56.37000275
C    15.40999985  11.61000061  57.48000336
C    14.06000042  11.92000008  57.44999695
C    24.04000092  12.35999966  56.79000092
H    24.47418594  11.71227837  57.55160522
H    19.44000053  12.34000015  59.12000275
H    18.34000015  10.77000046  54.48999786
H    20.72999954  10.67999935  53.97999573
H    23.03999901  11.52999973  54.55999756
H    21.78999901  12.61999989  58.43000031
H    13.53000069  12.10999966  58.37999725
H    24.67000008  12.20999908  55.90999985
H    24.00000000  13.42000008  57.08000183
S    13.00000000  10.82999992  53.80000305
C    10.32999992  10.57000065  54.45999908
C    11.56000042  11.07999992  54.79000092
C    11.87999916  11.52999973  56.11999893
C    10.85000038  11.56999969  57.02999878
C     9.55000019  11.13999939  56.66999817
C     8.48999977  11.10999966  57.63000107
C     7.18999958  10.80000019  57.31999969
C     6.90000010  10.31999969  56.02000427
C     7.90999985  10.19999981  55.08999634
C     9.22999954  10.65000057  55.35999680
C    13.32999992  11.63000011  56.29000092
C    14.07999992  11.21000099  55.15999603
C    15.40999985  10.82999992  55.19000244
C     5.46000004  10.05000019  55.63999939
H     5.03447104  10.68120098  54.85986328
H    10.19999981  10.03000069  53.52000427
H    11.05000019  11.82000065  58.06999969
H     8.78999996  11.50000000  58.60000229
H     6.34999990  11.00999928  57.97999954
H     7.68000031   9.84000015  54.09000015
H    15.93000031  10.59000015  54.26000214
H     4.73000002  10.08999920  56.45999908
H     5.46999979   9.02000046  55.26000214
S    16.90000153  12.31999969  52.60000229
C    19.60000038  12.43999958  51.86000061
C    18.31999969  12.02000046  51.58000183
C    17.95999908  11.59000015  50.27000046
C    19.00000000  11.50000000  49.34999847
C    20.35000038  11.84999943  49.52999878
C    21.42000008  11.59000015  48.62999725
C    22.70000076  11.89000034  49.01000214
C    22.98000145  12.46000099  50.27999878
C    21.94999886  12.64999962  51.18000031
C    20.59000015  12.36999989  50.84999847
C    16.53000069  11.49000072  50.06000137
C    15.85000038  11.98999977  51.20999908
C    14.47000027  12.17000008  51.25000000
C    24.37999916  12.84000015  50.68999863
H    24.89167404  12.27857971  51.47172546
H    19.78999901  12.89999962  52.83000183
H    18.81000137  11.02000046  48.39000320
H    21.21000099  11.28000069  47.61000061
H    23.50000000  11.51999950  48.36999893
H    22.11999893  13.07999992  52.16999817
H    13.97999954  12.46999931  52.16999817
H    24.79000092  12.69000053  49.68000031
H    24.47000122  13.90999985  50.94999695
S    13.27000046  10.60999966  47.77999878
C    10.59000015  10.88000107  48.50000000
C    11.90999985  11.17000008  48.76999664
C    12.25999928  11.77999973  50.01999664
C    11.25000000  12.18999958  50.86999893
C     9.89999962  11.82999992  50.68999863
C     8.85999966  12.10999966  51.62000275
C     7.59000015  11.63000011  51.38999939
C     7.27999973  10.90000057  50.20999908
C     8.27000046  10.62000084  49.29999924
C     9.57999992  11.16000080  49.45000076
C    13.71000099  11.79999924  50.13000107
C    14.37999916  11.28000069  48.99000168
C    15.76000023  11.11999989  48.95999908
C     5.88999987  10.38000011  49.89999771
H     5.52599716  10.95812225  49.05065918
H    10.29999924  10.15999985  47.74000168
H    11.56999969  12.76000023  51.73999786
H     9.11999989  12.71000004  52.49000168
H     6.86999989  11.94000053  52.14000320
H     7.97999954  10.14999962  48.36999893
H    16.23999977  10.73999977  48.06000137
H     5.26000023  10.65000057  50.76000214
H     5.73999977   9.30999947  49.77000427
