96

S    16.77999878  11.87999916  59.02000046
C    19.52000046  11.96000004  58.26000214
C    18.20999908  11.63000011  58.01000214
C    17.84000015  11.28000069  56.66999817
C    18.84000015  10.95000076  55.77000046
C    20.19000053  11.32999992  55.96000290
C    21.24000168  11.09000015  55.02999878
C    22.53000069  11.42000008  55.35999680
C    22.82999992  11.98999977  56.63000107
C    21.86000061  12.25999928  57.56000137
C    20.52999878  11.84999943  57.25999832
C    16.39999962  11.18999958  56.51000214
C    15.67999935  11.59000015  57.65999603
C    14.28999996  11.63000011  57.71999741
C    24.23999977  12.44999981  56.90000153
H    24.65360069  11.73689651  57.61310577
H    19.65999985  12.43000031  59.22999954
H    18.53999901  10.42000008  54.86999893
H    21.02000046  10.75000000  54.02000046
H    23.26000023  11.30000019  54.56999969
H    22.10000038  12.81000042  58.47000122
H    13.69999981  11.92000008  58.57999802
H    24.84000015  12.44999981  55.97999954
H    24.21999931  13.50999928  57.19999695
S    13.27000046  10.44999981  54.02000046
C    10.57999992  10.31000042  54.72999954
C    11.84000015  10.77999973  55.02999878
C    12.15999985  11.36000061  56.30000305
C    11.13999939  11.47999954  57.22000122
C     9.81000042  11.10999966  56.91999817
C     8.78000069  11.19999981  57.90000153
C     7.51999950  10.72000027  57.61000061
C     7.23999977  10.00000000  56.42000198
C     8.22000027   9.90999985  55.45999908
C     9.52999973  10.44000053  55.66999817
C    13.59000015  11.35000038  56.53999710
C    14.29999924  10.90000057  55.38999939
C    15.67000008  10.67000008  55.43000031
C     5.80999947   9.63000011  56.11000061
H     5.39031792  10.34132481  55.39867401
H    10.38000011   9.71000004  53.83999634
H    11.31999969  11.59999943  58.29000092
H     9.01000023  11.67000008  58.85000229
H     6.71000004  10.97000027  58.29000092
H     7.96999979   9.52999973  54.47999954
H    16.21999931  10.32999992  54.55999756
H     5.13000011   9.51000023  56.95999908
H     5.73999977   8.61999989  55.66999817
S    13.10999966   8.38999939  51.04999924
C    10.50000000   7.96000004  51.97000122
C    11.84999943   7.72000027  52.11000061
C    12.32999992   7.13999987  53.31999969
C    11.44000053   6.69000053  54.27000046
C    10.05000019   6.90999985  54.13999939
C     9.06999969   6.25000000  54.93000031
C     7.72000027   6.21999979  54.65999985
C     7.23000002   6.96000004  53.54999924
C     8.14000034   7.57000017  52.72999573
C     9.55000019   7.53999996  52.94000244
C    13.78999901   7.23000002  53.36000061
C    14.34000015   7.86000013  52.22000122
C    15.69000053   8.22000027  52.18000031
C     5.78000021   6.74000025  53.18999863
H     5.61587715   6.95407343  52.13390350
H    10.13000011   8.59000015  51.17000198
H    11.73999977   5.95000029  55.01999664
H     9.34000015   5.63000011  55.77999878
H     7.00000000   5.73000002  55.31000137
H     7.86000013   7.88999987  51.72999954
H    16.18000031   8.65999985  51.31999969
H     5.38999987   5.73000002  53.37999725
H     5.13000011   7.48000050  53.68000031
S    17.07999992   6.93000031  55.68000031
C    19.71999931   7.42000008  54.99000168
C    18.38999939   7.49000025  54.62999725
C    17.95999908   8.07999992  53.40000153
C    18.88000107   8.71999931  52.58999634
C    20.26000023   8.60000038  52.88000107
C    21.28999901   9.00000000  51.97999954
C    22.60999870   8.78999996  52.31999969
C    23.02999878   8.28999996  53.57999802
C    22.06000137   7.88000011  54.45000076
C    20.68000031   7.96999979  54.09999847
C    16.52000046   7.90000010  53.26000214
C    15.92000008   7.30999994  54.38999939
C    14.60000038   6.88000011  54.45000076
C    24.50000000   7.99000025  53.75999832
H    25.00537300   8.50249195  54.57856369
H    19.86999893   6.76000023  55.84000015
H    18.56999969   9.22000027  51.66999817
H    20.95000076   9.35000038  51.00999832
H    23.29000092   8.92000008  51.47999573
H    22.25000000   7.37999964  55.40000153
H    14.18000031   6.21999979  55.20000076
H    24.96999931   8.06999969  52.77999878
H    24.60000038   6.91999960  54.00000000
