96

S    16.79000092  11.97999954  58.54000092
C    19.45999908  11.98999977  57.84999847
C    18.17000008  11.68000031  57.48000336
C    17.71999931  11.21000099  56.19999695
C    18.76000023  10.98999977  55.31000137
C    20.12000084  11.19999981  55.63000107
C    21.12999916  11.11999989  54.62999725
C    22.43999863  11.43000031  54.92000198
C    22.81999969  11.82000065  56.23000336
C    21.86000061  11.95000076  57.21000290
C    20.50000000  11.64000034  56.95000076
C    16.28000069  11.10999966  56.04999924
C    15.65000057  11.49000072  57.25999832
C    14.27999973  11.72000027  57.29000092
C    24.20000076  12.35000038  56.53999710
H    24.62741280  11.65901470  57.26660538
H    19.77000046  12.46999931  58.76999664
H    18.53000069  10.81999969  54.26000214
H    20.81000137  10.95000076  53.61000061
H    23.15000153  11.39000034  54.09999847
H    22.11999893  12.39999962  58.16999817
H    13.93000031  12.06999969  58.26000214
H    24.80999947  12.50000000  55.63999939
H    24.04000092  13.34000015  56.97999954
S    12.97000027  10.44999981  53.79000092
C    10.26000023  10.65000057  54.48999786
C    11.56999969  10.98000050  54.73999786
C    12.02000046  11.44000053  56.03000259
C    11.05999947  11.61999893  57.00000000
C     9.68999958  11.32999992  56.73999786
C     8.78999996  11.36000061  57.84999847
C     7.46999979  11.02000046  57.68000031
C     7.04999971  10.47999954  56.43000031
C     7.92999983  10.31000042  55.38000107
C     9.26999950  10.75000000  55.48999786
C    13.47000027  11.43000031  56.18000031
C    14.13000011  10.88999939  55.05000305
C    15.51000023  10.72999954  54.94999695
C     5.61999989  10.01999950  56.25999832
H     5.14367485  10.63851166  55.49930191
H    10.05000019  10.15999985  53.54000092
H    11.44999981  11.87999916  57.97999954
H     8.96000004  11.87000084  58.79000092
H     6.71000004  11.31000042  58.37999725
H     7.59999990   9.92999935  54.41999817
H    16.05999947  10.29000092  54.12000275
H     5.17000008  10.25000000  57.22999954
H     5.53999996   8.94999981  56.02000427
S    16.98999977  12.51000023  52.58999634
C    19.70000076  12.56999969  51.91999817
C    18.40999985  12.20000076  51.59000015
C    18.07999992  11.61999893  50.31999969
C    19.12999916  11.43000031  49.45000076
C    20.46999931  11.79999924  49.75999832
C    21.51000023  11.61000061  48.81999969
C    22.76000023  12.09000015  49.13000107
C    23.09000015  12.65999985  50.38999939
C    22.11999893  12.79000092  51.36000061
C    20.79000092  12.39999962  51.03000259
C    16.63999939  11.56000042  50.13000107
C    15.92000008  12.06999969  51.24000168
C    14.53999996  12.22000027  51.35000229
C    24.51000023  13.02000046  50.76000214
H    25.04304123  12.20977783  51.25750351
H    19.96000099  13.02999973  52.87000275
H    19.05999947  11.02000046  48.44999695
H    21.21999931  11.17000008  47.87000275
H    23.54000092  11.97000027  48.37999725
H    22.46000099  13.04999924  52.35000229
H    14.11000061  12.50000000  52.30999756
H    24.99000168  13.31999969  49.81999969
H    24.41999817  13.88000011  51.43000031
S    13.43999958  10.97000027  47.72999573
C    10.72999954  10.92000008  48.48999786
C    12.02000046  11.31000042  48.74000168
C    12.30999947  11.72999954  50.07999802
C    11.28000069  11.95000076  50.97999954
C     9.92999935  11.72000027  50.61999893
C     8.85999966  11.84000015  51.55000305
C     7.59999990  11.40999985  51.24000168
C     7.23000002  10.98000050  49.93999863
C     8.26000023  10.81999969  49.03999710
C     9.61000061  11.13999939  49.34000015
C    13.75000000  11.87000084  50.26000214
C    14.46000004  11.40999985  49.12000275
C    15.82999992  11.19999981  49.03999710
C     5.82000017  10.67000008  49.50000000
H     5.47122812  11.31771946  48.69568634
H    10.46000004  10.34000015  47.62000275
H    11.49000072  12.20999908  52.01000214
H     9.11000061  12.15999985  52.56000137
H     6.84999990  11.31999969  52.02999878
H     8.07999992  10.64000034  47.97999954
H    16.21000099  10.77999973  48.11999893
H     5.12000036  10.85999966  50.33000183
H     5.73999977   9.61999989  49.18000031
