96

S    16.31000137  12.23999977  58.88999939
C    19.04999924  12.41000080  58.22999954
C    17.78000069  11.98999977  57.91999817
C    17.43999863  11.61000061  56.58000183
C    18.50000000  11.40999985  55.70000076
C    19.84000015  11.63000011  56.09000397
C    20.94000053  11.39000034  55.21999741
C    22.22999954  11.76000023  55.52999878
C    22.49000168  12.28999996  56.81999969
C    21.48999977  12.53000069  57.72999573
C    20.15999985  12.15000057  57.38999939
C    16.00000000  11.50000000  56.38999939
C    15.24000072  11.84000015  57.54000092
C    13.85000038  11.77000046  57.60000229
C    23.88999939  12.74000072  57.15999985
H    24.33786583  12.18549728  57.98464584
H    19.20999908  12.94999981  59.15999985
H    18.45000076  10.90999985  54.73999786
H    20.66999817  11.13000011  54.20000076
H    23.01000214  11.84999943  54.78000259
H    21.68000031  12.97000027  58.70999908
H    13.28999996  12.30999947  58.36000061
H    24.57999992  12.69999981  56.31000137
H    23.69999886  13.78999901  57.43000031
S    12.93000031  10.36000061  54.00000000
C    10.18000031  10.27999973  54.58000183
C    11.46999931  10.55999947  54.99000168
C    11.75000000  11.18999958  56.25000000
C    10.73999977  11.51999950  57.11999893
C     9.40999985  11.17000008  56.77000046
C     8.30999947  11.40999985  57.63999939
C     7.00000000  11.19999981  57.29999924
C     6.71999979  10.57999992  56.04999924
C     7.76999998  10.34000015  55.18000031
C     9.13999939  10.57999992  55.48999786
C    13.19000053  11.23000050  56.47999573
C    13.96000004  10.85999966  55.35999680
C    15.34000015  10.98000050  55.27000046
C     5.32000017  10.13000011  55.70999908
H     4.94294930  10.63510513  54.82072830
H     9.89999962   9.85999966  53.61000061
H    11.03000069  11.97999954  58.06000137
H     8.48999977  11.87000084  58.61000061
H     6.26999950  11.36999989  58.08000183
H     7.55999994   9.90999985  54.20999908
H    15.77999973  10.67000008  54.33000183
H     4.80999994  10.46000004  56.63000107
H     5.36999989   9.03999996  55.68999863
S    17.06999969  12.38000011  52.80000305
C    19.77000046  12.76000023  52.16999817
C    18.51000023  12.38999939  51.77000046
C    18.13999939  12.13999939  50.40000153
C    19.14999962  12.15000057  49.45000076
C    20.46999931  12.51000023  49.80999756
C    21.60000038  12.38000011  48.94000244
C    22.81999969  12.94000053  49.22999954
C    23.05999947  13.43000031  50.54000092
C    22.10000038  13.26000023  51.51000214
C    20.76999855  12.88000011  51.16000366
C    16.70999908  12.03999996  50.14999771
C    16.03000069  12.22000027  51.37000275
C    14.63999939  12.25000000  51.49000168
C    24.48999786  13.78999901  50.87999725
H    24.86602592  13.17274857  51.69590378
H    19.79999924  12.98999977  53.22999954
H    18.96999931  11.80999947  48.43999863
H    21.42000008  11.97999954  47.95000076
H    23.55999947  12.86000061  48.43999863
H    22.29999924  13.23999977  52.57999802
H    14.11999893  12.39999962  52.43000031
H    25.05000114  13.63000011  49.95999908
H    24.70000076  14.85000038  51.04999924
S    13.42000008  11.28999901  47.84000015
C    10.72999954  11.17000008  48.56999969
C    12.02999973  11.43000031  48.94000244
C    12.42000008  11.77000046  50.27999878
C    11.40999985  11.77999973  51.22000122
C    10.06000042  11.73999977  50.81999969
C     8.94999981  11.85999966  51.70999908
C     7.67000008  11.46999931  51.39999771
C     7.37999964  10.95999908  50.11000061
C     8.31999969  11.10999966  49.10999680
C     9.67000008  11.36000061  49.48999786
C    13.86000061  11.95000076  50.37000275
C    14.55000019  11.68000031  49.15999985
C    15.93000031  11.72000027  49.02999878
C     6.01999998  10.48999977  49.65000153
H     5.45161819  11.17205811  49.01767349
H    10.44000053  10.72999954  47.62000275
H    11.57999992  12.03999996  52.25999832
H     9.11000061  12.10999966  52.76000214
H     6.85999966  11.54999924  52.11999893
H     8.07999992  10.78999996  48.09999847
H    16.36000061  11.56999969  48.04999924
H     5.40999985  10.26000023  50.54000092
H     6.11999989   9.52999973  49.12000275
