96

S    16.31000137  11.64999962  58.82999802
C    18.96999931  11.79999924  58.02999878
C    17.68000031  11.42000008  57.72999573
C    17.32999992  11.07999992  56.38000107
C    18.34000015  10.95000076  55.45000076
C    19.69000053  11.23000050  55.77000046
C    20.72999954  10.98999977  54.81999969
C    22.01000023  11.28999901  55.20000076
C    22.36000061  11.95000076  56.40999603
C    21.35999870  12.11999989  57.34000397
C    20.03000069  11.67000008  57.09999847
C    15.88000107  11.09000015  56.24000168
C    15.21999931  11.43000031  57.43999863
C    13.83999920  11.61000061  57.50999832
C    23.75000000  12.43000031  56.72999954
H    24.14208221  11.96663094  57.63534927
H    19.11000061  12.48000050  58.87000275
H    18.05999947  10.51000023  54.48999786
H    20.51000214  10.67999935  53.81000137
H    22.84000015  11.00000000  54.54999924
H    21.54000092  12.55000019  58.31999969
H    13.35000038  11.87999916  58.43999863
H    24.43000031  12.28999996  55.87999725
H    23.68999863  13.50999928  56.93999863
S    12.67000008  10.65999985  53.77999878
C    10.03000069  10.57000065  54.40000153
C    11.28999901  10.88000107  54.86999893
C    11.64000034  11.23999977  56.20999908
C    10.55999947  11.38000011  57.06999969
C     9.22999954  11.13000011  56.68000031
C     8.14999962  11.17000008  57.61000061
C     6.89000034  10.76000023  57.23999786
C     6.63999987  10.34000015  55.90999985
C     7.62000036  10.40999985  54.94999695
C     8.97000027  10.69000053  55.33000183
C    13.07999992  11.38000011  56.36000061
C    13.73000050  10.98999977  55.15999603
C    15.10000038  10.77000046  55.12000275
C     5.29999971   9.81999969  55.45000076
H     4.78068829  10.44601917  54.72438812
H     9.77000046  10.29999924  53.37999725
H    10.80999947  11.68000031  58.08000183
H     8.38000011  11.36999989  58.64999771
H     6.02999973  10.73999977  57.90999985
H     7.40999985  10.07999992  53.93000031
H    15.55999947  10.60999966  54.15000153
H     4.76999998   9.64999962  56.39999771
H     5.64000034   8.89000034  54.97000122
S    13.19000053   8.55000019  51.11000061
C    10.47000027   7.99000025  51.75000000
C    11.80999947   7.88999987  52.01000214
C    12.27000046   7.23000002  53.20000076
C    11.32999992   6.84000015  54.13000107
C     9.94000053   6.86999989  53.85000229
C     8.96000004   6.51000023  54.81999969
C     7.64999962   6.44000006  54.43999863
C     7.26999998   6.71999979  53.09999847
C     8.13000011   7.31999969  52.21000290
C     9.48999977   7.40000010  52.58999634
C    13.71000099   7.31999969  53.39000320
C    14.34999943   8.01000023  52.32999802
C    15.71000004   8.31999969  52.31999969
C     5.86000013   6.30000019  52.74000168
H     5.36187077   6.86217451  51.95011139
H    10.10000038   8.57999992  50.90999985
H    11.61999893   6.57000017  55.13999939
H     9.21000004   5.98999977  55.75000000
H     6.90000010   5.88999987  55.00999832
H     7.76999998   7.71000004  51.25999832
H    16.07999992   8.80000019  51.42000198
H     5.91000032   5.26000023  52.38999939
H     5.19999981   6.37000036  53.61000061
S    17.05000114   6.70000029  55.66999817
C    19.71999931   7.28999996  55.00999832
C    18.38000107   7.51999950  54.82999802
C    17.94999886   8.10000038  53.59000397
C    18.88000107   8.52999973  52.65999603
C    20.28000069   8.43000031  52.88999939
C    21.24000168   8.93999958  51.97000122
C    22.57999802   8.71000004  52.21000290
C    22.98999977   8.02999973  53.37999725
C    22.07999992   7.55999994  54.29999924
C    20.69000053   7.76999998  54.09000015
C    16.51000023   7.92999983  53.40000153
C    15.88000107   7.21000004  54.43999863
C    14.51000023   6.94999981  54.47999954
C    24.47999954   7.81000042  53.57999802
H    24.86348724   8.22899532  54.51031113
H    20.00999832   6.69000053  55.86999893
H    18.51000023   8.86999989  51.70000076
H    21.04000092   9.55999947  51.10000229
H    23.36000061   9.07999992  51.55000305
H    22.42000198   7.13999987  55.24000168
H    14.22000027   6.39999962  55.37000275
H    24.96000099   8.28999996  52.72999573
H    24.59000015   6.71999979  53.54000092
