96

S    17.21999931  12.28000069  58.76999664
C    19.86999893  12.53999901  57.88000107
C    18.55999947  12.27000046  57.60000229
C    18.22000122  11.64000034  56.36000061
C    19.22000122  11.31000042  55.45999908
C    20.59000015  11.50000000  55.73999786
C    21.64999962  11.30000019  54.80999756
C    22.95000076  11.61000061  55.13999939
C    23.23999786  12.15000057  56.42000198
C    22.26000023  12.22000027  57.38999939
C    20.88999939  12.02000046  57.04999924
C    16.79000092  11.39999962  56.32999802
C    16.10000038  11.69000053  57.54000092
C    14.72000027  11.84000015  57.62000275
C    24.67000008  12.43000031  56.83000183
H    25.03958321  11.69083595  57.54073715
H    20.10999870  12.92000008  58.87000275
H    18.90999985  10.70000076  54.61000061
H    21.35000038  10.81999969  53.88000107
H    23.82999802  11.23999977  54.61999893
H    22.40999985  12.48999977  58.43000031
H    14.35999966  12.34000015  58.50999832
H    25.40999985  12.56000042  56.03000259
H    24.63999939  13.43000031  57.28000259
S    13.55999947  10.86999989  53.95000076
C    10.85000038  10.98000050  54.59000015
C    12.15000057  11.19999981  54.98000336
C    12.48000050  11.56999969  56.31999969
C    11.44999981  11.72999954  57.23999786
C    10.11000061  11.57999992  56.84000015
C     9.04999924  11.68000031  57.78999710
C     7.78999996  11.21000099  57.51999664
C     7.50999975  10.72999954  56.20999908
C     8.43000031  10.82999992  55.19000244
C     9.77999973  11.11999989  55.52000046
C    13.92000008  11.54000092  56.51000214
C    14.61999989  11.09000015  55.35999680
C    16.00000000  11.00000000  55.24000168
C     6.12999964  10.19999981  55.89000320
H     5.62487364  10.88298798  55.20701218
H    10.65000057  10.57000065  53.61000061
H    11.69999981  12.10000038  58.22999954
H     9.35999966  11.78999996  58.82999802
H     7.07000017  11.05000019  58.31999969
H     8.26000023  10.43000031  54.19000244
H    16.43000031  10.72000027  54.29000092
H     5.51000023  10.11999989  56.79000092
H     6.21000004   9.21000004  55.43000031
S    17.02000046  12.56000042  52.67000198
C    19.71999931  12.57999992  52.15999985
C    18.47999954  12.15999985  51.75000000
C    18.20000076  11.68000031  50.43000031
C    19.20999908  11.31999969  49.55999756
C    20.52000046  11.72999954  49.92000198
C    21.63999939  11.56000042  49.05000305
C    22.88999939  12.01000023  49.38999939
C    23.13999939  12.69000053  50.61000061
C    22.04000092  12.89000034  51.39999771
C    20.72000122  12.42000008  51.17000198
C    16.77999878  11.71000004  50.11000061
C    16.04999924  12.17000008  51.24000168
C    14.68999958  12.46000099  51.18999863
C    24.56000137  13.07999992  50.93999863
H    25.01420593  12.49804974  51.74195480
H    19.92000008  13.04999924  53.11999893
H    19.05999947  10.84000015  48.60000229
H    21.38000107  11.00000000  48.15999985
H    23.71000099  11.84000015  48.68999863
H    22.06000137  13.52000046  52.29000092
H    14.19000053  12.79999924  52.09000015
H    25.17000008  13.01000023  50.02999878
H    24.67000008  14.15999985  51.10000229
S    13.53999996  10.75000000  47.84000015
C    10.84000015  10.97000027  48.46000290
C    12.13999939  11.31000042  48.76999664
C    12.51000023  11.97999954  49.97000122
C    11.52999973  12.38000011  50.86000061
C    10.17000008  12.10000038  50.58000183
C     9.13000011  12.23000050  51.53999710
C     7.92000008  11.59999943  51.40999603
C     7.59000015  10.85000038  50.25000000
C     8.52000046  10.84000015  49.22999954
C     9.85999966  11.28999901  49.43000031
C    13.96000004  11.98999977  50.08999634
C    14.68999958  11.42000008  49.01000214
C    16.07999992  11.28000069  48.96999741
C     6.19000006  10.34999943  49.97000122
H     5.53685904  11.02443886  49.41625214
H    10.57000065  10.47000027  47.52999878
H    11.82000065  12.69000053  51.86000061
H     9.34000015  12.77999973  52.44999695
H     7.26999998  11.57999992  52.29000092
H     8.21000004  10.57000065  48.22999954
H    16.56999969  10.75000000  48.16999817
H     5.79999971  10.13000011  50.97000122
H     6.38999987   9.40999985  49.45000076
