96

S    16.46999931  12.23000050  58.54000092
C    19.15999985  12.01000023  57.97000122
C    17.86999893  11.90000057  57.50999832
C    17.56000137  11.51000023  56.17000198
C    18.60999870  11.35000038  55.27999878
C    19.96000099  11.46999931  55.70000076
C    21.04999924  11.32999992  54.79000092
C    22.32999992  11.59999943  55.20000076
C    22.57999802  12.03999996  56.52999878
C    21.54999924  12.35000038  57.36999893
C    20.22999954  11.92000008  57.04000092
C    16.11999893  11.38000011  55.98999786
C    15.44999981  11.64000034  57.21000290
C    14.06999969  11.76000023  57.25999832
C    23.97999954  12.39999962  56.97999954
H    24.36261749  11.74104404  57.75941086
H    19.29999924  12.23000050  59.02000046
H    18.35000038  11.05999947  54.26000214
H    20.79999924  10.98999977  53.79000092
H    23.12999916  11.50000000  54.45999908
H    21.70999908  12.86999893  58.30999756
H    13.63999939  11.92999935  58.23999786
H    24.71999931  12.34000015  56.17000198
H    23.94000053  13.43999958  57.31999969
S    12.90999985  10.47000027  53.68000031
C    10.21999931  10.51000023  54.47000122
C    11.52999973  10.80999947  54.75000000
C    11.89000034  11.36999989  56.02000427
C    10.88000107  11.57999992  56.93999863
C     9.51000023  11.32999992  56.70000076
C     8.42000008  11.56000042  57.58999634
C     7.11000013  11.26999950  57.27000427
C     6.80000019  10.78999996  55.97000122
C     7.82999992  10.48999977  55.11000061
C     9.19000053  10.76000023  55.41999817
C    13.34000015  11.43000031  56.10000229
C    14.02999973  11.05000019  54.93000031
C    15.42000008  10.98000050  54.85000229
C     5.38000011  10.42000008  55.59999847
H     4.95269442  11.01822758  54.79524231
H     9.89999962   9.85999966  53.66000366
H    11.26999950  11.97000027  57.87000275
H     8.60000038  11.92999935  58.59000397
H     6.28999996  11.25000000  57.97999954
H     7.72000027  10.08999920  54.10999680
H    15.90999985  10.60999966  53.95999908
H     4.72000027  10.43000031  56.47999573
H     5.45000029   9.42000008  55.15999603
S    13.27000046   8.46000004  50.94999695
C    10.59000015   7.97999954  51.75000000
C    11.95000076   7.79999971  51.91999817
C    12.39999962   7.17000008  53.13000107
C    11.46999931   6.69000053  54.02999878
C    10.07999992   6.67999983  53.75999832
C     9.11000061   6.34999990  54.75000000
C     7.77999973   6.58999968  54.52000046
C     7.36999989   7.17999983  53.29999924
C     8.25000000   7.76000023  52.41000366
C     9.61999989   7.42999983  52.62000275
C    13.85000038   7.30999994  53.23999786
C    14.47999954   7.90000010  52.11999893
C    15.80000019   8.32999992  52.15000153
C     5.91000032   7.55999994  53.15999985
H     5.41819000   7.09670067  52.30467606
H    10.24000072   8.59000015  50.91999817
H    11.77999973   6.19000006  54.94999695
H     9.46000004   6.01000023  55.72999954
H     7.09999990   6.32000017  55.33000183
H     7.86999989   8.36999989  51.59999847
H    16.29999924   8.89000034  51.36000061
H     5.32999992   7.11999989  53.97999573
H     5.88999987   8.64999962  53.02000046
S    17.12000084   6.89000034  55.65999985
C    19.77000046   7.36999989  55.07999802
C    18.45999908   7.53000021  54.68000031
C    18.01000023   8.10999966  53.46000290
C    18.93000031   8.76000023  52.64999771
C    20.29999924   8.48999977  52.91999817
C    21.34000015   9.06000042  52.12999725
C    22.65999985   9.07999992  52.50999832
C    23.06999969   8.38000011  53.68000031
C    22.09000015   7.90000010  54.52000046
C    20.71000099   7.90999985  54.16999817
C    16.57999992   7.96000004  53.26000214
C    15.98000050   7.26000023  54.34000015
C    14.63000107   6.94000006  54.34000015
C    24.51000023   7.96999979  53.87000275
H    24.93819237   8.31255436  54.81202698
H    20.15999985   6.90000010  55.97000122
H    18.64999962   9.35999966  51.79999924
H    21.07999992   9.47000027  51.16000366
H    23.36999893   9.51000023  51.81000137
H    22.39999962   7.40999985  55.44000244
H    14.15999985   6.63999987  55.27000046
H    25.05000114   8.38000011  53.01000214
H    24.56000137   6.88000011  53.81000137
