96

S    16.39999962  11.69999981  58.81999969
C    19.13999939  11.69000053  58.09999847
C    17.82999992  11.35000038  57.84000015
C    17.46999931  10.93000031  56.52000046
C    18.44000053  10.81999969  55.54000092
C    19.78999901  11.13999939  55.81999969
C    20.76999855  11.13999939  54.79000092
C    22.09000015  11.42000008  55.06000137
C    22.47999954  11.72000027  56.39999771
C    21.54000092  11.92000008  57.37999725
C    20.17999840  11.56999969  57.14000320
C    16.02000046  10.95000076  56.32999802
C    15.29999924  11.39000034  57.45999908
C    13.90999985  11.51000023  57.48000336
C    23.97000122  11.82999992  56.58000183
H    24.34076500  11.32376099  57.47126770
H    19.38999939  12.00000000  59.10999680
H    18.13999939  10.52999973  54.54000092
H    20.40999985  11.00000000  53.76999664
H    22.79999924  11.49000072  54.23999786
H    21.76000214  12.31999969  58.36999893
H    13.43000031  12.02999973  58.29999924
H    24.33000183  11.31999969  55.68000031
H    24.31999969  12.86999893  56.56000137
S    12.82999992  10.42000008  53.81999969
C    10.11999989  10.25000000  54.55999756
C    11.40999985  10.64000034  54.86999893
C    11.73999977  11.23999977  56.11999893
C    10.71000004  11.44999981  57.02000046
C     9.39000034  11.02000046  56.75000000
C     8.31999969  11.28000069  57.65999603
C     7.02000046  11.03999996  57.28000259
C     6.71999979  10.34999943  56.07999802
C     7.71000004  10.11000061  55.14999771
C     9.06000042  10.43000031  55.47999954
C    13.17999935  11.17000008  56.33999634
C    13.89999962  10.84000015  55.17000198
C    15.29000092  10.71000004  55.15999603
C     5.29999971  10.01999950  55.66999817
H     4.97964430  10.68206978  54.86555099
H     9.94999981   9.77000046  53.60000229
H    10.84000015  11.95000076  57.97999954
H     8.47999954  11.68000031  58.66000366
H     6.25000000  11.50000000  57.88999939
H     7.49000025   9.77000046  54.15000153
H    15.80000019  10.44999981  54.23999786
H     4.53999996  10.19000053  56.43000031
H     5.21000004   8.96000004  55.38999939
S    13.10999966   8.53999996  50.73999786
C    10.44000053   8.09000015  51.39999771
C    11.77000046   7.94000053  51.72999954
C    12.15999985   7.31999969  52.95000076
C    11.19999981   6.85999966  53.83999634
C     9.81000042   6.94999981  53.56999969
C     8.80000019   6.61000013  54.51000214
C     7.46999979   6.76999998  54.18000031
C     7.09999990   7.26999998  52.90000153
C     8.09000015   7.69000006  52.04000092
C     9.48000050   7.62000036  52.34000397
C    13.59000015   7.44999981  53.15000153
C    14.22000027   8.09000015  52.04999924
C    15.59000015   8.32999992  52.05999756
C     5.72000027   7.78999996  52.57999802
H     5.35846090   7.22287941  51.72223282
H    10.03999901   8.48999977  50.47999954
H    11.51000023   6.38999987  54.75999832
H     9.06999969   6.19999981  55.47999954
H     6.80999994   6.81999969  55.04000092
H     7.77999973   8.30999947  51.19999695
H    16.21999931   8.60000038  51.22000122
H     5.10999966   7.78999996  53.48999786
H     5.84000015   8.84000015  52.29999924
S    16.90000153   6.90000010  55.56000137
C    19.60000038   7.27999973  54.86000061
C    18.27000046   7.46999979  54.58000183
C    17.77000046   8.15999985  53.43000031
C    18.72999954   8.75000000  52.62000275
C    20.10999870   8.51000023  52.80000305
C    21.09999847   9.07999992  51.93999863
C    22.42000198   8.93999958  52.28000259
C    22.86000061   8.00000000  53.25000000
C    21.94000053   7.37999964  54.06000137
C    20.55999947   7.71000004  53.89999771
C    16.34000015   8.02999973  53.20999908
C    15.73999977   7.32999992  54.29000092
C    14.37999916   7.03000021  54.22999954
C    24.31999969   7.64999962  53.47999954
H    24.65500259   7.90659666  54.48500443
H    19.93000031   6.71000004  55.72000122
H    18.44000053   9.34000015  51.75000000
H    20.75000000   9.61999989  51.05999756
H    23.19999886   9.48000050  51.76000214
H    22.37999916   6.65999985  54.73999786
H    13.97999954   6.39999962  55.00999832
H    24.90999985   8.19000053  52.72999573
H    24.54999924   6.60000038  53.26000214
