96

S    17.02000046  12.25999928  58.73000336
C    19.67000008  12.50000000  57.90000153
C    18.40999985  12.01000023  57.65999603
C    18.06999969  11.36000061  56.43000031
C    19.10000038  11.10999966  55.54000092
C    20.38000107  11.69000053  55.70999908
C    21.35999870  11.54999924  54.68999863
C    22.67999840  11.79999924  54.97000122
C    23.03999901  12.39999962  56.20999908
C    22.09000015  12.61000061  57.18000031
C    20.72000122  12.30999947  56.95999908
C    16.62999916  11.25000000  56.23000336
C    15.98000050  11.67000008  57.41000366
C    14.59000015  11.73999977  57.50999832
C    24.47999954  12.64999962  56.59000015
H    24.87152863  11.95236683  57.33034515
H    19.93999863  13.05999947  58.79000092
H    18.95000076  10.34000015  54.78000259
H    21.14000130  11.10999966  53.72000122
H    23.43000031  11.47999954  54.25000000
H    22.36999893  13.02999973  58.15000153
H    14.07999992  11.95000076  58.43999863
H    25.06000137  12.61000061  55.65000153
H    24.46000099  13.63999939  57.04999924
S    13.36999989  10.72999954  53.85000229
C    10.69000053  10.57000065  54.65999985
C    11.98999977  10.90999985  54.94999695
C    12.42000008  11.32999992  56.25000000
C    11.47999954  11.46000004  57.27000427
C    10.13000011  11.16000080  56.97000122
C     9.13999939  11.21000099  57.98999786
C     7.82999992  10.90000057  57.68000031
C     7.39000034  10.47999954  56.39999771
C     8.36000061  10.36000061  55.43000031
C     9.71000004  10.77000046  55.65999985
C    13.86000061  11.46999931  56.33999634
C    14.52000046  11.03999996  55.17000198
C    15.90000057  10.86999989  55.08999634
C     6.01999998   9.85999966  56.26999664
H     5.39201069  10.53794289  55.69196320
H    10.46000004  10.06000042  53.73000336
H    11.65999985  11.84000015  58.27000046
H     9.34000015  11.64000034  58.96999741
H     7.07000017  10.95000076  58.44999695
H     8.18000031   9.82999992  54.50000000
H    16.31999969  10.52000046  54.15000153
H     5.50000000   9.68999958  57.22000122
H     6.10000038   8.92000008  55.72000122
S    13.35999966   8.48999977  51.00999832
C    10.70000076   8.07999992  51.70999908
C    12.02999973   7.96000004  52.04999924
C    12.50000000   7.32999992  53.25000000
C    11.57999992   6.78999996  54.12000275
C    10.19999981   6.90999985  53.81000137
C     9.19999981   6.39999962  54.68000031
C     7.85000038   6.57000017  54.45000076
C     7.44000006   7.34000015  53.33000183
C     8.36000061   7.92999983  52.49000168
C     9.73999977   7.59999990  52.63999939
C    13.94000053   7.51999950  53.39000320
C    14.55999947   8.10000038  52.25999832
C    15.90999985   8.43999958  52.28000259
C     6.01000023   7.79999971  53.18999863
H     5.64161348   7.53787851  52.19818878
H    10.25000000   8.65999985  50.90999985
H    11.92000008   6.25999975  55.00999832
H     9.48000050   5.97000027  55.63999939
H     7.13999987   6.32999992  55.22999573
H     8.07999992   8.61999989  51.70999908
H    16.32999992   9.02000046  51.45999908
H     5.36000013   7.26000023  53.88999939
H     5.82000017   8.88000011  53.30999756
S    17.20999908   7.04999971  55.75000000
C    19.89999962   7.81000042  55.12000275
C    18.55999947   7.72000027  54.80999756
C    18.09999847   8.15999985  53.53000259
C    19.00000000   8.73999977  52.64999771
C    20.39999962   8.71000004  52.87000275
C    21.28999901   9.02999973  51.81000137
C    22.63999939   9.01000023  52.05999756
C    23.11000061   8.60000038  53.34000015
C    22.25000000   8.18000031  54.33000183
C    20.84000015   8.28999996  54.16999817
C    16.65999985   8.01000023  53.37999725
C    16.01000023   7.40999985  54.48999786
C    14.65999985   7.09999990  54.51000214
C    24.60000038   8.67000008  53.55999756
H    24.93468666   8.57030582  54.59254074
H    20.27000046   7.37999964  56.04999924
H    18.56999969   9.21000004  51.77000046
H    20.85000038   9.25000000  50.84000015
H    23.26999855   9.32999992  51.23000336
H    22.69000053   7.79999971  55.25000000
H    14.18000031   6.54999971  55.31000137
H    24.94999886   9.57999992  53.06999969
H    25.06000137   7.90000010  52.93000031
