96

S    16.79000092  11.97000027  58.86000061
C    19.48999977  12.11999989  58.26000214
C    18.22000122  11.79999924  57.83000183
C    17.86999893  11.39999962  56.50000000
C    18.90999985  11.32999992  55.59000015
C    20.23999977  11.54999924  56.00999832
C    21.21000099  11.56000042  54.95999908
C    22.44999886  11.98999977  55.37000275
C    22.81999969  12.18000031  56.72999954
C    21.88999939  12.28000069  57.75000000
C    20.55999947  11.97999954  57.35000229
C    16.43000031  11.31999969  56.31999969
C    15.70000076  11.59999943  57.50999832
C    14.32999992  11.77999973  57.50000000
C    24.27999878  12.46000099  57.00000000
H    24.70663834  12.12579918  57.94572067
H    19.63000107  12.67000008  59.19000244
H    18.75000000  11.28999901  54.52000046
H    20.92000008  11.28000069  53.95000076
H    23.31000137  12.06999969  54.69999695
H    22.13000107  12.48999977  58.77999878
H    13.78999901  12.11999989  58.39000320
H    24.82000160  12.02000046  56.14999771
H    24.44000053  13.53999996  56.93000031
S    13.27999973  10.62000084  53.81999969
C    10.52999973  10.60999966  54.40999985
C    11.82000065  10.90000057  54.79000092
C    12.13999939  11.31999969  56.11999893
C    11.13999939  11.52999973  57.04000092
C     9.80000019  11.26999950  56.63999939
C     8.78000069  11.14999962  57.62000275
C     7.50999975  10.70000076  57.31999969
C     7.13000011  10.55999947  55.96000290
C     8.10000038  10.53999996  54.99000168
C     9.46000004  10.78999996  55.33000183
C    13.56999969  11.47999954  56.37000275
C    14.28999996  11.11999989  55.20000076
C    15.67999935  11.05999947  55.17000198
C     5.78000021   9.89999962  55.77000046
H     5.36140442  10.31859493  54.85476685
H    10.25000000  10.31999969  53.40000153
H    11.32999992  11.78999996  58.08000183
H     9.15999985  11.18000031  58.63999939
H     6.90000010  10.25000000  58.09999847
H     8.01000023  10.13000011  53.99000168
H    16.21000099  10.70000076  54.29999924
H     5.14999962  10.08999920  56.65000153
H     5.84999990   8.80999947  55.75000000
S    17.05000114  12.61999989  52.63000107
C    19.78000069  12.97999954  51.93999863
C    18.47999954  12.71000004  51.59000015
C    18.12000084  12.25999928  50.27999878
C    19.14999962  12.05999947  49.36999893
C    20.48000145  12.38000011  49.72999954
C    21.52000046  12.22000027  48.76999664
C    22.84000015  12.39999962  49.13999939
C    23.19999886  13.02999973  50.35999680
C    22.21999931  13.21000004  51.31000137
C    20.86000061  12.89000034  51.02000427
C    16.69000053  12.09000015  50.07999802
C    15.95999908  12.28000069  51.27999878
C    14.57999992  12.34000015  51.35000229
C    24.61999893  13.35999966  50.72999954
H    25.06697464  12.68599129  51.46076965
H    19.96000099  13.17999935  52.98999786
H    18.88000107  11.82999992  48.34999847
H    21.42000008  11.75000000  47.80000305
H    23.67000198  12.10999966  48.50999832
H    22.46999931  13.73999977  52.22000122
H    14.02999973  12.64000034  52.23999786
H    25.36999893  13.30999947  49.93000031
H    24.63999939  14.34999943  51.22000122
S    13.48000050  11.69999981  47.60000229
C    10.72999954  11.42000008  48.29999924
C    12.02999973  11.72999954  48.62999725
C    12.38000011  12.05999947  49.98000336
C    11.35000038  12.15999985  50.90000153
C    10.03000069  11.76000023  50.56999969
C     8.97000027  11.68000031  51.52000046
C     7.73000002  11.16000080  51.23000336
C     7.39000034  10.78999996  49.89999771
C     8.34999943  10.92000008  48.93000031
C     9.65999985  11.39999962  49.22999954
C    13.81999969  12.10999966  50.20000076
C    14.55000019  11.85999966  49.01000214
C    15.93000031  11.82000065  48.93000031
C     6.06999969  10.24000072  49.41999817
H     5.54421234  10.90078735  48.73078918
H    10.46000004  11.07999992  47.30999756
H    11.51999950  12.38999939  51.95000076
H     9.19999981  12.01000023  52.52999878
H     7.04999971  10.95000076  52.04999924
H     8.11999989  10.52000046  47.94000244
H    16.45000076  11.57999992  48.00000000
H     5.45000029  10.10000038  50.31999969
H     6.39999962   9.27999973  49.01000214
