96

S    16.88999939  12.25999928  58.59000397
C    19.55000114  12.51999950  57.93000031
C    18.27000046  12.25999928  57.48000336
C    17.97999954  11.82999992  56.13999939
C    19.04000092  11.72000027  55.26000214
C    20.36999893  11.95000076  55.68999863
C    21.48999977  11.92999935  54.80999756
C    22.72999954  12.41000080  55.15999603
C    23.02000046  12.76999950  56.50000000
C    21.97000122  12.75000000  57.38999939
C    20.63999939  12.39999962  57.02999878
C    16.54999924  11.63000011  56.00999832
C    15.84000015  11.92999935  57.19999695
C    14.46000004  12.02999973  57.28000259
C    24.44999886  13.02000046  56.90999985
H    24.85745621  12.31231308  57.63198090
H    19.69000053  12.94000053  58.92000198
H    18.79999924  11.50000000  54.22000122
H    21.28000069  11.59999943  53.80000305
H    23.46999931  12.32999992  54.36000061
H    22.09000015  13.12000084  58.40999985
H    13.93000031  12.22000027  58.20999908
H    25.09000015  12.94000053  56.02000427
H    24.51000023  14.04999924  57.28000259
S    13.38000107  11.16000080  53.48999786
C    10.69000053  11.00999928  54.13000107
C    11.97999954  11.21999931  54.56999969
C    12.28000069  11.56999969  55.93000031
C    11.26999950  11.61000061  56.86999893
C     9.96000004  11.26000023  56.47999573
C     8.89000034  11.25000000  57.42000198
C     7.62000036  10.95000076  56.97999954
C     7.39000034  10.46000004  55.66999817
C     8.38999939  10.53999996  54.72999954
C     9.64999962  11.07999992  55.08999634
C    13.71999931  11.72999954  56.12999725
C    14.40000057  11.43000031  54.92000198
C    15.78999996  11.38000011  54.86000061
C     6.02999973   9.85999966  55.38999939
H     5.55394888  10.44262886  54.60131836
H    10.52999973  10.67999935  53.11000061
H    11.59000015  11.89000034  57.87000275
H     9.09000015  11.61999893  58.41999817
H     6.86999989  11.00999928  57.76000214
H     8.36999989  10.11999989  53.72000122
H    16.31999969  11.18000031  53.93000031
H     5.38000011   9.89000034  56.27999878
H     6.10000038   8.84000015  54.98000336
S    17.43999863  13.10999966  52.34000397
C    20.15000153  13.12000084  51.75000000
C    18.89000130  12.68000031  51.42000198
C    18.54999924  12.05999947  50.18000031
C    19.54000092  11.84000015  49.23999786
C    20.84000015  12.27000046  49.58000183
C    21.91999817  11.82999992  48.76999664
C    23.22999954  12.10000038  49.10999680
C    23.57000160  12.97000027  50.18000031
C    22.56000137  13.27999973  51.04999924
C    21.18999863  12.94999981  50.79999924
C    17.11000061  11.97000027  50.02999878
C    16.34000015  12.57999992  51.05999756
C    14.94999981  12.68000031  51.07999802
C    25.00999832  13.34000015  50.47000122
H    25.51654434  12.69790268  51.19057083
H    20.32999992  13.64999962  52.69000244
H    19.40999985  11.10000038  48.44999695
H    21.71999931  11.11999989  47.97000122
H    24.01000023  11.69000053  48.47000122
H    22.65999985  13.86000061  51.95999908
H    14.40999985  13.21000004  51.86000061
H    25.55000114  13.55000019  49.54000092
H    25.03000069  14.32000065  50.96000290
S    13.89999962  10.95999908  47.70999908
C    11.21999931  11.02000046  48.27000046
C    12.46000099  11.51000023  48.60000229
C    12.81999969  12.27000046  49.75000000
C    11.73999977  12.55000019  50.56999969
C    10.43000031  12.05000019  50.38999939
C     9.38000011  12.13000107  51.33999634
C     8.14999962  11.56000042  51.11000061
C     7.85000038  10.95999908  49.86000061
C     8.88000011  10.76000023  48.95999908
C    10.19000053  11.23999977  49.22000122
C    14.26000023  12.23000050  49.94999695
C    15.01999950  11.64000034  48.89999771
C    16.39999962  11.50000000  48.92000198
C     6.43000031  10.52000046  49.59999847
H     5.92487288  11.20298862  48.91701126
H    10.98000050  10.44999981  47.36999893
H    11.90000057  12.90999985  51.58000183
H     9.63999939  12.56999969  52.29999924
H     7.37999964  11.64000034  51.86999893
H     8.71999931  10.29000092  47.98999786
H    16.97999954  11.05999947  48.11000061
H     5.86000013  10.57999992  50.54000092
H     6.37000036   9.48999977  49.22999954
