96

S    16.77999878  12.06999969  58.75000000
C    19.47000122  12.28000069  57.97000122
C    18.15999985  11.97999954  57.64999771
C    17.79000092  11.42000008  56.38000107
C    18.82999992  11.21000099  55.48999786
C    20.17000008  11.56000042  55.76000214
C    21.24000168  11.43000031  54.81999969
C    22.53000069  11.82999992  55.06999969
C    22.89999962  12.30999947  56.35000229
C    21.88999939  12.42000008  57.28000259
C    20.52000046  12.11999989  57.04000092
C    16.35000038  11.33999920  56.17000198
C    15.72000027  11.56999969  57.42000198
C    14.32999992  11.69000053  57.48000336
C    24.34000015  12.69000053  56.62000275
H    24.81141663  12.16144180  57.44855118
H    19.68000031  12.89999962  58.83999634
H    18.52000046  10.86999989  54.51000214
H    21.07000160  10.98999977  53.83999634
H    23.19000053  11.67000008  54.22000122
H    22.09000015  12.94000053  58.22000122
H    13.82999992  12.07999992  58.36000061
H    24.93999863  12.50000000  55.72000122
H    24.44000053  13.76000023  56.84999847
S    13.01000023  10.98000050  53.81999969
C    10.36000061  10.69000053  54.59999847
C    11.63000011  11.10999966  54.93000031
C    12.06999969  11.38000011  56.26999664
C    11.09000015  11.46000004  57.22999954
C     9.73999977  11.13999939  56.95000076
C     8.69999981  11.13999939  57.93000031
C     7.37999964  10.90999985  57.64999771
C     7.03999996  10.52999973  56.31999969
C     8.01999950  10.39000034  55.35999680
C     9.38000011  10.71000004  55.61999893
C    13.52000046  11.46999931  56.36000061
C    14.19000053  11.21999931  55.13000107
C    15.55999947  11.05000019  55.05000305
C     5.56999969  10.25000000  56.05999756
H     5.14126492  10.87166595  55.27398300
H    10.00000000  10.39000034  53.61999893
H    11.26000023  11.79999924  58.25000000
H     9.02999973  11.43000031  58.93000031
H     6.60000038  10.77999973  58.39000320
H     7.82000017  10.19000053  54.31999969
H    16.13000107  10.81999969  54.15000153
H     5.10999966  10.38000011  57.04999924
H     5.46999979   9.19000053  55.79999924
S    17.47999954  12.60000038  52.49000168
C    20.17999840  12.84999943  51.70000076
C    18.89000130  12.43999958  51.42000198
C    18.53999901  11.85999966  50.15999603
C    19.47999954  11.61000061  49.18000031
C    20.82999992  11.92999935  49.48999786
C    21.84999847  11.67000008  48.54000092
C    23.12999916  11.96000004  48.94000244
C    23.54999924  12.31999969  50.24000168
C    22.55000114  12.68000031  51.11000061
C    21.18000031  12.51999950  50.76000214
C    17.09000015  11.78999996  49.97000122
C    16.39999962  12.15999985  51.14999771
C    15.01999950  12.20999908  51.29000092
C    24.99000168  12.72999954  50.51000214
H    25.43120193  12.25321770  51.38528442
H    20.43999863  13.15999985  52.70999908
H    19.27000046  10.98000050  48.33000183
H    21.54999924  11.43000031  47.51999664
H    23.95000076  11.92000008  48.22999954
H    22.78000069  13.22000027  52.02999878
H    14.67000008  12.42000008  52.29999924
H    25.68000031  12.75000000  49.65999985
H    24.84999847  13.78000069  50.77999878
S    13.83999920  11.18999958  47.60000229
C    11.13999939  11.28000069  48.27000046
C    12.43999958  11.49000072  48.66000366
C    12.86000061  12.09000015  49.88999939
C    11.82999992  12.39999962  50.76000214
C    10.46000004  12.34000015  50.41999817
C     9.51000023  12.30000019  51.49000168
C     8.19999981  11.92999935  51.29000092
C     7.88000011  11.28999901  50.06999969
C     8.84000015  11.07999992  49.09000015
C    10.13000011  11.67000008  49.19000244
C    14.29999924  12.10999966  50.10000229
C    14.93999958  11.69999981  48.89999771
C    16.31999969  11.54000092  48.83999634
C     6.52999973  10.67999935  49.79999924
H     5.98219728  11.30605984  49.09568405
H    11.00999928  10.71000004  47.35000229
H    12.05999947  12.53000069  51.81000137
H     9.92999935  12.38000011  52.49000168
H     7.50000000  11.84999943  52.11999893
H     8.73999977  10.31999969  48.31999969
H    16.77999878  11.18999958  47.91999817
H     5.98999977  10.72999954  50.75000000
H     6.43000031   9.63999939  49.47000122
