96

S    16.55999947  12.28999996  58.61999893
C    19.25000000  12.07999992  57.83000183
C    17.93000031  11.73999977  57.63000107
C    17.54999924  11.21999931  56.35000229
C    18.52000046  10.90000057  55.40999985
C    19.88999939  11.17000008  55.65000153
C    20.92000008  10.85000038  54.71000290
C    22.23999977  11.11999989  54.98000336
C    22.59000015  11.79999924  56.18000031
C    21.63000107  12.13000107  57.09999847
C    20.27000046  11.77000046  56.90000153
C    16.10000038  11.30000019  56.25000000
C    15.39999962  11.78999996  57.37999725
C    14.01000023  11.82000065  57.43000031
C    24.02000046  12.18000031  56.49000168
H    24.53895760  11.66815090  57.30043030
H    19.52999878  12.48999977  58.80000305
H    18.18000031  10.29999924  54.58000183
H    20.62999916  10.51000023  53.73000336
H    23.01000214  10.90000057  54.23999786
H    21.90999985  12.61000061  58.02999878
H    13.59000015  12.25999928  58.33000183
H    24.61000061  12.09000015  55.56999969
H    24.09000015  13.23999977  56.77999878
S    12.82999992  10.52000046  53.81000137
C    10.13000011  10.51000023  54.64000320
C    11.44000053  10.84000015  54.87999725
C    11.82000065  11.36000061  56.16000366
C    10.88000107  11.77000046  57.09000015
C     9.52000046  11.51999950  56.79999924
C     8.53999996  11.69999981  57.81000137
C     7.21000004  11.40999985  57.61000061
C     6.80999994  10.67999935  56.45999908
C     7.75000000  10.52999973  55.45999908
C     9.11999989  10.88000107  55.56999969
C    13.27000046  11.44000053  56.31000137
C    13.92000008  10.95000076  55.14999771
C    15.31000042  10.93999958  55.14999771
C     5.40000010  10.17000008  56.29000092
H     4.93152189  10.59588909  55.40273285
H     9.77999973  10.11000061  53.68999863
H    11.09000015  12.28999996  58.01000214
H     8.89999962  12.23999977  58.68999863
H     6.48999977  11.54999924  58.40999985
H     7.40999985  10.14000034  54.50000000
H    15.65000057  10.57999992  54.19000244
H     4.78999996  10.32999992  57.18999863
H     5.40999985   9.06999969  56.30000305
S    13.17999935   8.45000076  50.89000320
C    10.52000046   7.90000010  51.56000137
C    11.84999943   7.86999989  51.90000153
C    12.27000046   7.30999994  53.15000153
C    11.32999992   7.00999975  54.12000275
C     9.96000004   7.09000015  53.76999664
C     8.98999977   6.78999996  54.75999832
C     7.63999987   6.88000011  54.51000214
C     7.21000004   7.23000002  53.20000076
C     8.10999966   7.50000000  52.18999863
C     9.50000000   7.44999981  52.44999695
C    13.71000099   7.36000013  53.30999756
C    14.28999996   8.05999947  52.22000122
C    15.65999985   8.25000000  52.12999725
C     5.73000002   7.39000034  52.95000076
H     5.32524204   6.87872696  52.07657623
H    10.26000023   8.23000050  50.56000137
H    11.61999893   6.74000025  55.13999939
H     9.35000038   6.65999985  55.77999878
H     6.80000019   6.71999979  55.18000031
H     7.72000027   7.88999987  51.25999832
H    16.11999893   8.59000015  51.20999908
H     5.14999962   7.13000011  53.83999634
H     5.60999966   8.46000004  52.77000046
S    16.93000031   6.69000053  55.58000183
C    19.60000038   7.26000023  54.86000061
C    18.25000000   7.42000008  54.65000153
C    17.87999916   8.03999996  53.40999985
C    18.81999969   8.39999962  52.45999908
C    20.20999908   8.26000023  52.67000198
C    21.21000099   8.71000004  51.77000046
C    22.50999832   8.30999947  52.00000000
C    22.90999985   7.76999998  53.25000000
C    21.97000122   7.44999981  54.20000076
C    20.59000015   7.68000031  53.93000031
C    16.44000053   7.92999983  53.26000214
C    15.80000019   7.26999998  54.34000015
C    14.45000076   6.94999981  54.43000031
C    24.37000084   7.44999981  53.48999786
H    24.77516174   7.98310852  54.35007858
H    19.95000076   6.76999998  55.77000046
H    18.45999908   8.80000019  51.51000214
H    20.88999939   9.11000061  50.81999969
H    23.25000000   8.47000027  51.22000122
H    22.22999954   7.07000017  55.19000244
H    14.06999969   6.44999981  55.31000137
H    24.99000168   7.73000002  52.62000275
H    24.44999886   6.37000036  53.62999725
