96

S    16.54999924  11.82999992  59.03999710
C    19.29999924  11.75000000  58.61000061
C    18.04000092  11.52999973  58.11999893
C    17.77000046  11.07999992  56.77999878
C    18.86000061  10.90000057  55.94999695
C    20.17000008  11.19999981  56.38000107
C    21.22999954  11.18999958  55.43000031
C    22.50000000  11.51000023  55.86999893
C    22.78000069  11.89000034  57.21000290
C    21.75000000  11.85999966  58.13000107
C    20.40999985  11.57999992  57.75000000
C    16.34000015  11.13000011  56.49000168
C    15.54999924  11.51000023  57.61000061
C    14.15999985  11.57999992  57.63999939
C    24.18999863  12.28999996  57.56999969
H    24.68060493  11.87760735  58.45166779
H    19.47000122  11.89000034  59.68000031
H    18.65999985  10.53999996  54.93999863
H    21.09999847  10.77000046  54.43999863
H    23.28000069  11.39000034  55.13000107
H    21.96000099  12.18999958  59.15000153
H    13.67000008  11.72000027  58.59000397
H    24.70999908  12.07999992  56.63000107
H    24.13999939  13.38000107  57.55000305
S    13.20000076  10.36999893  53.99000168
C    10.44999981  10.27999973  54.58000183
C    11.72999954  10.60999966  54.97000122
C    12.03999996  11.09000015  56.27999878
C    11.03000069  11.19999981  57.22000122
C     9.68999958  10.90999985  56.86000061
C     8.64999962  11.00000000  57.83000183
C     7.34000015  10.81999969  57.45999908
C     7.03999996  10.36999893  56.14999771
C     8.02999973  10.31000042  55.19000244
C     9.39999962  10.52999973  55.50000000
C    13.48000050  11.23999977  56.45999908
C    14.25000000  10.80000019  55.35999680
C    15.64000034  10.71000004  55.35999680
C     5.71000004   9.71000004  55.86000061
H     5.12082863  10.29917145  55.15725327
H    10.24000072   9.80000019  53.62999725
H    11.18999958  11.42000008  58.27000046
H     9.02000046  11.14999962  58.83999634
H     6.53999996  10.85999966  58.18999863
H     7.82999992   9.72000027  54.29999924
H    16.18999863  10.22999954  54.55999756
H     5.15999985   9.59000015  56.79999924
H     5.84000015   8.67999935  55.52000046
S    13.55000019   8.61999989  51.11000061
C    10.90999985   8.01999950  51.69000244
C    12.23999977   7.82999992  52.01000214
C    12.63000011   7.07000017  53.15999985
C    11.64999962   6.48999977  53.94000244
C    10.29000092   6.72999954  53.66000366
C     9.25000000   6.28999996  54.52000046
C     7.92000008   6.28000021  54.15999985
C     7.57000017   7.07000017  53.04000092
C     8.50000000   7.63999987  52.19999695
C     9.88000011   7.40000010  52.43999863
C    14.07999992   7.17000008  53.25000000
C    14.72000027   8.01000023  52.29999924
C    16.06999969   8.32999992  52.36999893
C     6.09000015   7.34000015  52.87000275
H     5.71251535   7.01237202  51.90136337
H    10.70000076   8.56999969  50.79000092
H    11.89000034   6.09000015  54.93000031
H     9.53999996   5.82000017  55.45999908
H     7.26000023   5.75999975  54.85000229
H     8.31999969   8.31999969  51.37000275
H    16.55999947   8.97000027  51.65000153
H     5.52999973   6.76000023  53.61999893
H     5.82999992   8.39999962  53.01000214
S    17.26000023   6.63999987  55.76000214
C    19.98999977   7.23000002  55.27999878
C    18.65999985   7.30999994  54.92000198
C    18.27000046   7.92999983  53.68999863
C    19.18000031   8.55000019  52.84999847
C    20.53999901   8.32999992  53.15999985
C    21.57999992   8.78000069  52.29000092
C    22.89999962   8.48999977  52.54000092
C    23.26000023   7.88999987  53.77999878
C    22.32999992   7.48000050  54.69999695
C    20.96999931   7.77999973  54.41999817
C    16.84000015   7.79999971  53.40000153
C    16.18999863   7.04999971  54.40999985
C    14.85000038   6.67000008  54.31000137
C    24.65999985   7.36999989  54.05000305
H    24.97315025   7.56927729  55.07485580
H    20.36000061   6.52999973  56.03000259
H    18.92000008   8.94999981  51.86999893
H    21.45000076   9.28999996  51.33999634
H    23.61000061   8.71999931  51.76000214
H    22.55000114   6.77999973  55.50000000
H    14.37000084   6.15999985  55.13000107
H    25.35000038   7.79999971  53.30999756
H    24.76000023   6.28999996  53.88999939
