96

S    16.67000008  12.10000038  58.64999771
C    19.34999847  12.51000023  57.84000015
C    18.09999847  11.97000027  57.61000061
C    17.76000023  11.46000004  56.31000137
C    18.78999901  11.13999939  55.44000244
C    20.09000015  11.61000061  55.76000214
C    21.17000198  11.39999962  54.86000061
C    22.46000099  11.76000023  55.18000031
C    22.81999969  12.36999989  56.40999603
C    21.77999878  12.68000031  57.25000000
C    20.43000031  12.35000038  56.93999863
C    16.32999992  11.30000019  56.11000061
C    15.62000084  11.73999977  57.25999832
C    14.22999954  11.79999924  57.30999756
C    24.21999931  12.81999969  56.75000000
H    24.66808510  12.17276287  57.50392532
H    19.48999977  12.93000031  58.82999802
H    18.61999893  10.69000053  54.47000122
H    20.95000076  11.10000038  53.83999634
H    23.26999855  11.64999962  54.45999908
H    21.91999817  13.02000046  58.27999878
H    13.68999958  12.05000019  58.20999908
H    24.86000061  12.77999973  55.86000061
H    24.13000107  13.86999989  57.02999878
S    13.09000015  10.43000031  53.79000092
C    10.42000008  10.52999973  54.40999985
C    11.69999981  10.80000019  54.82999802
C    12.07999992  11.17000008  56.17000198
C    11.03999996  11.32999992  57.06999969
C     9.72999954  11.03000069  56.63999939
C     8.73000050  11.02000046  57.65999603
C     7.48000050  10.51000023  57.39999771
C     7.07999992  10.26000023  56.05999756
C     7.99000025  10.26999950  55.02999878
C     9.34000015  10.59000015  55.33000183
C    13.53000069  11.28999901  56.20999908
C    14.25000000  10.88999939  55.06000137
C    15.62999916  10.80999947  55.00000000
C     5.63000011   9.96999931  55.70999908
H     5.13261175  10.72318745  55.09892273
H    10.22999954  10.10000038  53.43000031
H    11.21999931  11.72999954  58.06000137
H     9.01000023  11.31999969  58.67000198
H     6.83000040  10.34999943  58.25000000
H     7.64999962   9.88000011  54.06999969
H    16.11999893  10.52000046  54.06999969
H     5.07000017   9.89999962  56.65000153
H     5.53999996   8.98999977  55.22999573
S    13.60000038   8.64000034  50.86999893
C    10.93999958   8.13000011  51.58000183
C    12.28000069   7.90000010  51.79000092
C    12.76999950   7.27999973  52.97999954
C    11.85999966   6.90999985  53.95999908
C    10.47000027   7.04999971  53.76999664
C     9.57999992   6.43000031  54.68999863
C     8.22000027   6.50000000  54.52999878
C     7.79999971   7.16000032  53.34999847
C     8.60000038   7.75000000  52.38999939
C    10.01000023   7.67000008  52.55000305
C    14.19999981   7.48000050  53.18000031
C    14.80000019   8.18000031  52.09999847
C    16.17000008   8.38999939  52.02999878
C     6.30999994   7.36999989  53.15999985
H     5.95445061   7.01445103  52.19290543
H    10.67000008   8.65999985  50.66999817
H    12.27000046   6.54999971  54.89999771
H    10.03999901   5.89999962  55.52000046
H     7.55999994   6.07999992  55.30000305
H     8.14000034   8.34999943  51.60999680
H    16.56999969   8.84000015  51.11999893
H     5.73000002   6.93000031  53.97999573
H     6.11000013   8.43999958  53.18999863
S    17.35000038   7.13999987  55.68000031
C    20.06000137   7.49000025  55.12000275
C    18.75000000   7.69999981  54.75000000
C    18.34000015   8.19000053  53.47000122
C    19.34999847   8.52999973  52.57999802
C    20.72000122   8.46000004  52.94000244
C    21.76000214   9.02000046  52.14000320
C    23.05999947   8.89000034  52.57999802
C    23.42000008   8.10000038  53.69999695
C    22.43999863   7.65999985  54.54999924
C    21.07000160   7.83999968  54.19000244
C    16.93000031   8.05000019  53.15999985
C    16.28999901   7.50999975  54.29999924
C    14.93999958   7.20000029  54.33000183
C    24.86000061   7.69999981  53.96999741
H    25.30136108   8.16271496  54.85271835
H    20.36999893   7.03000021  56.05999756
H    19.15999985   8.97000027  51.60999680
H    21.48999977   9.59000015  51.25999832
H    23.78999901   9.40999985  51.97000122
H    22.78000069   7.07000017  55.38999939
H    14.47999954   6.67000008  55.15999603
H    25.51000214   7.88999987  53.11000061
H    24.79000092   6.61000013  54.08000183
