96

S    16.95999908  12.43999958  58.72000122
C    19.68000031  12.38000011  58.16999817
C    18.42000008  11.96000004  57.81999969
C    18.11000061  11.35000038  56.56000137
C    19.12999916  11.13000011  55.65000153
C    20.45000076  11.57999992  55.90000153
C    21.52000046  11.43000031  54.98000336
C    22.79999924  11.77000046  55.31999969
C    23.05000114  12.31999969  56.60999680
C    22.04000092  12.41000080  57.55000305
C    20.69000053  12.18000031  57.18999863
C    16.68000031  11.17000008  56.40999603
C    15.92000008  11.72000027  57.47000122
C    14.55999947  11.98999977  57.36999893
C    24.47000122  12.64000034  57.00000000
H    24.92493820  11.95759296  57.71794891
H    20.02000046  12.72999954  59.15000153
H    18.95000076  10.65999985  54.68999863
H    21.40000153  10.86999989  54.05000305
H    23.64000130  11.64999962  54.65000153
H    22.29999924  12.68000031  58.56999969
H    14.06000042  12.53000069  58.16999817
H    25.13000107  12.56999969  56.12999725
H    24.53000069  13.68000031  57.36999893
S    13.48999977  10.43000031  53.90999603
C    10.76000023  10.42000008  54.65000153
C    12.06999969  10.76000023  54.92000198
C    12.43000031  11.51999950  56.06999969
C    11.46000004  11.82999992  57.02000046
C    10.13000011  11.39000034  56.81000137
C     9.07999992  11.63000011  57.74000168
C     7.77999973  11.23000050  57.54000092
C     7.44999981  10.48999977  56.37000275
C     8.45000076  10.11999989  55.50000000
C     9.77000046  10.62999916  55.63999939
C    13.86999989  11.46999931  56.26999664
C    14.60000038  10.85999966  55.21999741
C    15.98000050  10.71000004  55.27999878
C     6.03999996  10.03000069  56.05999756
H     5.58304596  10.62261200  55.26746750
H    10.48999977   9.98999977  53.68999863
H    11.77000046  12.30000019  57.95000076
H     9.38000011  11.98999977  58.72000122
H     6.94000006  11.52999973  58.15999985
H     8.23999977   9.47000027  54.65000153
H    16.50000000  10.29000092  54.41999817
H     5.50000000  10.11000061  57.01000214
H     6.14000034   8.97000027  55.79000092
S    17.35000038  12.53000069  52.70000076
C    20.05000114  12.69000053  52.02000046
C    18.78999901  12.23999977  51.70999908
C    18.50000000  11.72999954  50.40000153
C    19.51000023  11.71000004  49.45999908
C    20.86000061  11.97999954  49.80999756
C    21.93000031  11.82000065  48.89999771
C    23.19999886  12.15000057  49.31000137
C    23.45000076  12.82999992  50.52999878
C    22.43999863  12.96000004  51.45000076
C    21.14000130  12.50000000  51.12999725
C    17.05999947  11.63000011  50.21999741
C    16.31000137  12.07999992  51.33999634
C    14.92000008  12.09000015  51.43000031
C    24.86000061  13.17999935  50.97000122
H    25.23965645  12.52097416  51.75080109
H    20.22000122  13.30000019  52.90000153
H    19.34999847  11.17000008  48.53000259
H    21.80000114  11.21999931  48.01000214
H    24.03000069  11.82000065  48.68000031
H    22.56999969  13.34000015  52.47000122
H    14.40000057  12.35999966  52.34000397
H    25.42000008  13.12999916  50.02999878
H    24.90999985  14.25000000  51.23000336
S    13.89000034  10.75000000  47.83000183
C    11.13999939  10.75000000  48.48999786
C    12.44999981  10.88999939  48.87000275
C    12.79000092  11.39000034  50.15999603
C    11.76000023  11.59999943  51.06999969
C    10.39999962  11.46999931  50.72000122
C     9.31999969  11.82999992  51.59000015
C     8.00000000  11.77000046  51.20999908
C     7.68000031  11.18000031  49.95999908
C     8.69999981  10.97000027  49.05000305
C    10.07999992  11.05999947  49.38000107
C    14.22000027  11.61000061  50.31000137
C    14.96000099  11.18999958  49.18000031
C    16.34000015  11.09000015  49.15000153
C     6.24000025  10.78999996  49.72999954
H     5.70583487  11.31704330  48.93943405
H    10.84000015  10.52000046  47.47000122
H    12.05000019  11.94000053  52.05999756
H     9.64999962  12.18999958  52.56000137
H     7.17000008  11.84999943  51.90000153
H     8.46000004  10.55999947  48.06999969
H    16.82999992  10.72999954  48.25000000
H     5.71000004  10.90999985  50.68999863
H     6.11000013   9.73999977  49.47000122
