96

S    16.81999969  12.13999939  58.82999802
C    19.52000046  12.15000057  58.18999863
C    18.22999954  11.89000034  57.78999710
C    17.81999969  11.33999920  56.52999878
C    18.85000038  11.21999931  55.61000061
C    20.19000053  11.50000000  55.94999695
C    21.21000099  11.13000011  55.02999878
C    22.52000046  11.36999989  55.38000107
C    22.95000076  11.85999966  56.63999939
C    21.94999886  12.13999939  57.54000092
C    20.55999947  12.02999973  57.23999786
C    16.36999893  11.28000069  56.33999634
C    15.70000076  11.71000004  57.50999832
C    14.32000065  11.75000000  57.62000275
C    24.41999817  12.10000038  56.90999985
H    24.80365753  11.48898983  57.72705078
H    19.73999977  12.20000076  59.25000000
H    18.60000038  10.64000034  54.72999954
H    21.02999878  10.77000046  54.02000046
H    23.28000069  11.26000023  54.61999893
H    22.21999931  12.43000031  58.54999924
H    13.90999985  11.84000015  58.61999893
H    25.00000000  11.92999935  56.00000000
H    24.50000000  13.14000034  57.25000000
S    13.12000084  10.60999966  53.99000168
C    10.42000008  10.62999916  54.77000427
C    11.73999977  10.88999939  55.07999802
C    12.09000015  11.33999920  56.38999939
C    11.10000038  11.40999985  57.35000229
C     9.72999954  11.26999950  57.02000046
C     8.64999962  11.56999969  57.90999985
C     7.34000015  11.39999962  57.52999878
C     7.00999975  10.81999969  56.27999878
C     8.01000023  10.65999985  55.34000015
C     9.36999989  10.90999985  55.68000031
C    13.53999996  11.38000011  56.52000046
C    14.22000027  11.03999996  55.31999969
C    15.59999943  10.90000057  55.24000168
C     5.58000040  10.51000023  55.87999725
H     5.23763657  11.10200310  55.03122330
H    10.21999931  10.03000069  53.88000107
H    11.42000008  11.72999954  58.34000015
H     8.86999989  11.92999935  58.90999603
H     6.60000038  11.68000031  58.27000046
H     7.69999981  10.32999992  54.36000061
H    16.13999939  10.57000065  54.36000061
H     4.94999981  10.81999969  56.72000122
H     5.55999994   9.44000053  55.65000153
S    13.53999996   8.75000000  50.86999893
C    10.84000015   8.13000011  51.50000000
C    12.18999958   7.99000025  51.72999954
C    12.71999931   7.36999989  52.90999985
C    11.87000084   6.76000023  53.81999969
C    10.47000027   6.86999989  53.61999893
C     9.50000000   6.28000021  54.47999954
C     8.18000031   6.60000038  54.29999924
C     7.67000008   7.42000008  53.26000214
C     8.56999969   7.65999985  52.25000000
C     9.96999931   7.53000021  52.43999863
C    14.14000034   7.57000017  53.15999985
C    14.73999977   8.32999992  52.11999893
C    16.05999947   8.71999931  52.27000427
C     6.21000004   7.76000023  53.01000214
H     5.76087999   7.36791086  52.09749985
H    10.34999943   8.59000015  50.63999939
H    12.35999966   6.21000004  54.61999893
H     9.68999958   5.59999990  55.31000137
H     7.53000021   6.19999981  55.06999969
H     8.22000027   8.06999969  51.30000305
H    16.47999954   9.27999973  51.44000244
H     5.58000040   7.42999983  53.83999634
H     6.10000038   8.85000038  53.04000092
S    17.43000031   6.77999973  55.44000244
C    20.07999802   7.30000019  54.84000397
C    18.76000023   7.49000025  54.51000214
C    18.30999947   8.23999977  53.36999893
C    19.29999924   8.67000008  52.50000000
C    20.65999985   8.59000015  52.87000275
C    21.68000031   8.92000008  51.93999863
C    23.01000214   8.69000053  52.22999954
C    23.39999962   8.06999969  53.43999863
C    22.46999931   7.72000027  54.38999939
C    21.09999847   7.92000008  54.06000137
C    16.86000061   8.15999985  53.27000046
C    16.25000000   7.28999996  54.22000122
C    14.88999939   7.00999975  54.19000244
C    24.79999924   7.59000015  53.75000000
H    25.19881058   7.95320225  54.69717026
H    20.28000069   6.85999966  55.80999756
H    19.10000038   8.88000011  51.45000076
H    21.38999939   9.35000038  50.97999954
H    23.75000000   8.84000015  51.45000076
H    22.79000092   7.25000000  55.31999969
H    14.34999943   6.47000027  54.95999908
H    25.46999931   7.96000004  52.95999908
H    24.86000061   6.50000000  53.68999863
