96

S    16.57999992  12.46000099  58.63999939
C    19.23999977  12.48000050  57.90999985
C    17.97999954  11.97000027  57.65999603
C    17.60000038  11.47999954  56.37000275
C    18.59000015  11.38000011  55.40999985
C    19.92000008  11.76000023  55.70000076
C    20.97999954  11.51999950  54.78000259
C    22.29000092  11.84999943  55.06999969
C    22.57999802  12.57999992  56.25000000
C    21.59000015  12.88000011  57.15000153
C    20.28000069  12.35000038  56.95999908
C    16.14999962  11.51000023  56.22000122
C    15.44999981  11.96000004  57.36000061
C    14.07999992  12.20999908  57.39999771
C    23.97000122  13.14000034  56.50000000
H    24.43117523  12.54402065  57.28754425
H    19.54000092  13.03999996  58.79000092
H    18.30999947  11.10000038  54.40000153
H    20.75000000  11.03000069  53.83999634
H    23.00000000  11.46000004  54.34999847
H    21.81999969  13.34000015  58.11000061
H    13.66000080  12.72999954  58.26000214
H    24.69000053  13.02999973  55.68999863
H    24.02000046  14.17000008  56.88999939
S    12.86999893  11.05000019  53.82999802
C    10.21999931  10.97000027  54.48999786
C    11.49000072  11.31999969  54.89999771
C    11.82999992  11.61999893  56.25999832
C    10.77999973  11.89000034  57.11999893
C     9.44000053  11.63000011  56.76000214
C     8.32999992  11.84999943  57.63000107
C     7.03000021  11.56999969  57.29999924
C     6.80000019  10.90000057  56.06999969
C     7.82999992  10.81999969  55.14999771
C     9.18000031  11.18000031  55.41999817
C    13.27999973  11.72999954  56.36000061
C    13.97999954  11.32999992  55.19000244
C    15.36000061  11.23999977  55.08999634
C     5.42000008  10.36999893  55.76000214
H     4.91719294  11.02860641  55.05181885
H    10.08999920  10.47000027  53.53000259
H    10.95000076  12.41000080  58.06000137
H     8.56999969  12.18999958  58.63999939
H     6.25999975  11.72000027  58.04999924
H     7.63000011  10.25000000  54.25000000
H    15.77999973  10.95000076  54.13999939
H     4.84000015  10.32999992  56.69000244
H     5.51999998   9.36999989  55.33000183
S    13.23999977   8.80999947  50.73999786
C    10.54999924   8.48999977  51.55000305
C    11.90000057   8.34999943  51.79999924
C    12.27000046   7.79999971  53.06999969
C    11.33999920   7.30999994  53.96999741
C     9.94999981   7.36000013  53.68999863
C     8.88000011   6.91999960  54.52000046
C     7.57000017   7.03999996  54.12000275
C     7.18999958   7.83999968  53.01000214
C     8.21000004   8.27999973  52.19999695
C     9.57999992   7.99000025  52.44999695
C    13.71000099   7.92000008  53.20000076
C    14.34000015   8.57999992  52.11000061
C    15.71000004   8.80999947  52.12999725
C     5.73999977   8.02999973  52.63000107
H     5.36245918   7.50286770  51.75381851
H    10.19999981   8.92000008  50.61999893
H    11.64000034   6.94000006  54.93999863
H     9.04999924   6.47000027  55.48999786
H     6.81999969   6.48000002  54.68000031
H     7.94000053   8.93000031  51.37000275
H    16.21999931   9.11999989  51.22000122
H     5.15999985   8.02999973  53.55999756
H     5.73999977   9.09000015  52.35000229
S    16.98999977   7.39000034  55.56000137
C    19.69000053   7.68000031  54.84000397
C    18.36000061   7.88999987  54.55999756
C    17.97000122   8.60000038  53.37999725
C    18.92000008   9.06999969  52.49000168
C    20.28000069   8.82000065  52.77000046
C    21.28000069   9.26000023  51.86000061
C    22.62000084   9.04999924  52.11000061
C    23.05000114   8.56000042  53.36999893
C    22.10000038   8.14000034  54.27999878
C    20.71000099   8.14000034  53.96999741
C    16.52000046   8.55000019  53.23999786
C    15.85999966   7.83999968  54.27000046
C    14.52999973   7.42000008  54.22000122
C    24.53000069   8.32999992  53.60000229
H    24.90160370   8.55153275  54.60046768
H    20.03000069   7.26999998  55.79000092
H    18.64999962   9.55000019  51.55000305
H    21.07000160   9.75000000  50.91999817
H    23.36999893   9.26000023  51.36000061
H    22.43000031   7.73000002  55.21999741
H    14.14000034   6.81999969  55.02999878
H    25.12000084   8.92000008  52.88999939
H    24.72999954   7.30999994  53.26000214
