96

S    16.56999969  12.18999958  58.80000305
C    19.29999924  12.25000000  58.04999924
C    18.01000023  11.87000084  57.81000137
C    17.64000130  11.46000004  56.47999573
C    18.68000031  11.26999950  55.59000015
C    20.03999901  11.57999992  55.83000183
C    21.11000061  11.35000038  54.93000031
C    22.43000031  11.57999992  55.24000168
C    22.75000000  11.97000027  56.56000137
C    21.73999977  12.31999969  57.43000031
C    20.36999893  12.07999992  57.14000320
C    16.21000099  11.31000042  56.31000137
C    15.48999977  11.73999977  57.45999908
C    14.11000061  11.82000065  57.43999863
C    24.14999962  12.42000008  56.93000031
H    24.53257942  11.88864040  57.80142975
H    19.48999977  12.75000000  59.00000000
H    18.38999939  10.97000027  54.58000183
H    20.76000023  11.03000069  53.95000076
H    23.09999847  11.44999981  54.38999939
H    22.03000069  12.88000011  58.31999969
H    13.61999989  12.28000069  58.29000092
H    24.79999924  12.20000076  56.07999802
H    24.20999908  13.50999928  57.04999924
S    13.02000046  10.85999966  53.77999878
C    10.21999931  10.72000027  54.52000046
C    11.54999924  11.00000000  54.75999832
C    11.97000027  11.43000031  56.05999756
C    11.03999996  11.75000000  57.02999878
C     9.67000008  11.50000000  56.77000046
C     8.67000008  11.59999943  57.77999878
C     7.36000013  11.26999950  57.50999832
C     6.90000010  10.93999958  56.20999908
C     7.83999968  10.84000015  55.20999908
C     9.22999954  10.98999977  55.50000000
C    13.40999985  11.51000023  56.26999664
C    14.14999962  11.13999939  55.11000061
C    15.52999973  11.00999928  55.12000275
C     5.46999979  10.59999943  55.86999893
H     5.01579523  11.01162338  54.96868515
H    10.00000000  10.36000061  53.52000427
H    11.49000072  12.28000069  57.85999680
H     8.97000027  11.92999935  58.77999878
H     6.65999985  11.54000092  58.29999924
H     7.55000019  10.46000004  54.23999786
H    16.04999924  10.71000004  54.20999908
H     4.86000013  10.76000023  56.76000214
H     5.44000053   9.52999973  55.65000153
S    17.09000015  12.58999920  52.68000031
C    19.82999992  12.64999962  51.97999954
C    18.51000023  12.42000008  51.63999939
C    18.20999908  12.18000031  50.26000214
C    19.23999977  12.00000000  49.34999847
C    20.59999847  12.20000076  49.68999863
C    21.64999962  12.13000107  48.73000336
C    22.93999863  12.43999958  49.09000015
C    23.26000023  12.81000042  50.41999817
C    22.23999977  12.90999985  51.33999634
C    20.88999939  12.56000042  51.04999924
C    16.77999878  12.13000107  50.00000000
C    16.10000038  12.36999989  51.22000122
C    14.70999908  12.41000080  51.32999802
C    24.61999893  13.30999947  50.84999847
H    25.12512589  12.62701225  51.53298950
H    19.90999985  12.93000031  53.02999878
H    18.96000099  11.84999943  48.30999756
H    21.42999840  11.82000065  47.70999908
H    23.68999863  12.67000008  48.33000183
H    22.53000069  13.38999939  52.28000259
H    14.27000046  12.89000034  52.18999863
H    25.23999977  13.48000050  49.95999908
H    24.51999855  14.27999973  51.35000229
S    13.48000050  11.09000015  47.77000046
C    10.80999947  10.88999939  48.55999756
C    12.07999992  11.35000038  48.81999969
C    12.46999931  11.90000057  50.08999634
C    11.47999954  12.15000057  51.02000427
C    10.14000034  11.87000084  50.66999817
C     9.07999992  12.23000050  51.53999710
C     7.76000023  11.96000004  51.24000168
C     7.44999981  11.26999950  50.04000092
C     8.42000008  10.78999996  49.19000244
C     9.76000023  11.14999962  49.47999954
C    13.90999985  11.95000076  50.27000046
C    14.57999992  11.56999969  49.08000183
C    15.97000027  11.63000011  48.96999741
C     6.00000000  10.88999939  49.84000397
H     5.49592495  11.52186871  49.10873795
H    10.52000046  10.38000011  47.63999939
H    11.65999985  12.61000061  51.98999786
H     9.26999950  12.46999931  52.57999802
H     7.00000000  12.09000015  52.00000000
H     8.21000004  10.19999981  48.29999924
H    16.45000076  11.28999901  48.06000137
H     5.49000025  10.98000050  50.79999924
H     6.05000019   9.84000015  49.52999878
