96

S    16.94000053  11.96000004  58.95000076
C    19.56999969  12.56000042  58.11999893
C    18.32999992  12.02000046  57.84999847
C    18.01000023  11.59999943  56.52000046
C    18.95000076  11.59999943  55.51000214
C    20.28000069  11.97999954  55.83000183
C    21.38999939  11.64000034  55.00000000
C    22.69000053  11.87000084  55.38000107
C    23.00000000  12.43000031  56.63999939
C    21.94999886  12.71999931  57.48000336
C    20.58000183  12.51000023  57.12999725
C    16.59000015  11.31999969  56.36000061
C    15.88999939  11.61999893  57.56000137
C    14.51000023  11.75000000  57.50000000
C    24.47000122  12.58999920  56.98999786
H    24.79836464  11.96182346  57.81805038
H    19.70999908  12.93000031  59.13000107
H    18.81999969  11.05000019  54.58000183
H    21.21000099  11.07999992  54.09000015
H    23.51000023  11.77000046  54.68000031
H    22.20000076  12.90999985  58.52000427
H    13.99000072  11.90999985  58.43999863
H    25.07999802  12.23999977  56.14999771
H    24.79999924  13.60999966  57.25000000
S    13.48999977  10.36000061  53.88999939
C    10.72999954  10.38000011  54.55999756
C    12.03999996  10.71000004  54.82999802
C    12.38000011  11.21000099  56.12999725
C    11.42000008  11.33999920  57.11999893
C    10.06000042  11.10999966  56.79000092
C     8.98999977  11.36999989  57.69000244
C     7.68000031  11.18999958  57.31999969
C     7.36999989  10.47000027  56.12999725
C     8.34999943  10.19999981  55.20999908
C     9.68999958  10.55999947  55.51000214
C    13.81000042  11.39000034  56.33999634
C    14.52999973  10.97000027  55.19000244
C    15.92000008  10.86999989  55.20999908
C     5.93999958  10.03000069  55.90000153
H     5.45538950  10.65714264  55.15170670
H    10.50000000   9.85999966  53.62999725
H    11.61999893  11.54000092  58.16999817
H     9.27999973  11.84999943  58.61999893
H     6.89000034  11.56000042  57.97000122
H     8.14000034   9.96999931  54.16999817
H    16.44000053  10.55999947  54.31999969
H     5.51000023   9.96999931  56.90999985
H     5.93999958   8.97999954  55.59999847
S    13.68999958   8.52000046  50.87999725
C    10.98999977   8.05999947  51.63000107
C    12.34000015   7.97999954  51.90000153
C    12.74000072   7.30000019  53.09000015
C    11.80999947   6.67000008  53.89999771
C    10.42000008   6.80000019  53.68000031
C     9.35999966   6.28000021  54.48999786
C     8.02999973   6.48999977  54.23999786
C     7.63000011   7.18999958  53.06999969
C     8.61999989   7.63999987  52.22999954
C    10.01000023   7.55000019  52.51999664
C    14.18000031   7.42000008  53.27000046
C    14.80999947   8.06999969  52.18999863
C    16.13000107   8.51000023  52.22999954
C     6.19000006   7.55000019  52.78999710
H     5.76402903   7.09563112  51.89545822
H    10.67999935   8.60999966  50.75000000
H    12.15999985   6.17999983  54.80999756
H     9.63999939   5.65999985  55.33000183
H     7.26999998   6.11999989  54.93000031
H     8.26000023   8.21000004  51.38000107
H    16.54000092   9.00000000  51.35000229
H     5.64000034   7.30999994  53.70999908
H     6.09000015   8.64000034  52.75000000
S    17.45000076   7.07999992  55.72999954
C    20.07999802   7.76000023  55.06000137
C    18.73999977   7.88999987  54.80999756
C    18.27000046   8.47000027  53.57999802
C    19.15999985   8.97000027  52.63999939
C    20.53999901   8.76999950  52.84999847
C    21.55999947   9.10000038  51.90999985
C    22.88000107   9.04999924  52.28000259
C    23.32999992   8.51000023  53.52000427
C    22.37999916   8.19000053  54.45999908
C    21.00000000   8.31999969  54.13999939
C    16.84999847   8.19000053  53.39000320
C    16.28000069   7.44000006  54.43999863
C    14.93000031   7.11000013  54.40999985
C    24.80999947   8.28999996  53.68999863
H    25.15195274   8.53934097  54.69448853
H    20.45000076   7.07999992  55.83000183
H    18.89000130   9.39999962  51.68000031
H    21.38000107   9.47000027  50.90999985
H    23.52999878   9.50000000  51.53999710
H    22.69000053   7.79999971  55.43000031
H    14.52000046   6.58999968  55.27000046
H    25.29000092   8.88000011  52.88999939
H    25.03000069   7.23999977  53.43999863
