96

S    16.44000053  11.69000053  58.68000031
C    19.12999916  11.85999966  57.83000183
C    17.81999969  11.47999954  57.58999634
C    17.43000031  10.90999985  56.33999634
C    18.38999939  10.75000000  55.35999680
C    19.73999977  11.11999989  55.56999969
C    20.76000023  10.95000076  54.59000015
C    22.06999969  11.13000011  54.98000336
C    22.44999886  11.56000042  56.26999664
C    21.48999977  11.77999973  57.22999954
C    20.12000084  11.65999985  56.84000015
C    15.98999977  11.03999996  56.12999725
C    15.32999992  11.44999981  57.30999756
C    13.94000053  11.52999973  57.34000397
C    23.85999870  12.05000019  56.53999710
H    24.42332649  11.40823555  57.21741867
H    19.42000008  12.18000031  58.82999802
H    18.20000076  10.31000042  54.38000107
H    20.43999863  10.80999947  53.55999756
H    22.77000046  11.28999901  54.16999817
H    21.64999962  11.97000027  58.29000092
H    13.45000076  11.84999943  58.26000214
H    24.40000153  12.13000107  55.59000015
H    23.85000038  13.07999992  56.91999817
S    12.76999950  10.27999973  53.69999695
C    10.10000038  10.14000034  54.56999969
C    11.39000034  10.59999943  54.75999832
C    11.76000023  11.02000046  56.07999802
C    10.80000019  11.21000099  57.05999756
C     9.44000053  10.86999989  56.86999893
C     8.40999985  10.92000008  57.84999847
C     7.11000013  10.62999916  57.50000000
C     6.78999996  10.18000031  56.18999863
C     7.76999998  10.03000069  55.24000168
C     9.11999989  10.34999943  55.56999969
C    13.20000076  11.13000011  56.22000122
C    13.85000038  10.78999996  55.00000000
C    15.22999954  10.62999916  55.02999878
C     5.35000038   9.78999996  55.90999985
H     4.85221004  10.40868187  55.16331482
H     9.77000046   9.75000000  53.61000061
H    10.98999977  11.39999962  58.11000061
H     8.56999969  11.23000050  58.88000107
H     6.28999996  10.59999943  58.20999908
H     7.60999966   9.70000076  54.20999908
H    15.88000107  10.24000072  54.25000000
H     4.79999971   9.85000038  56.84999847
H     5.26000023   8.73999977  55.59000015
S    16.77000046  12.50000000  52.61000061
C    19.45000076  12.63000011  51.84999847
C    18.17000008  12.20999908  51.56000137
C    17.79999924  11.59999943  50.31999969
C    18.82999992  11.39999962  49.41999817
C    20.17000008  11.75000000  49.68999863
C    21.28000069  11.54999924  48.81000137
C    22.56000137  11.92999935  49.12000275
C    22.86999893  12.56000042  50.35999680
C    21.86000061  12.64000034  51.30000305
C    20.51000214  12.32999992  50.96000290
C    16.35000038  11.50000000  50.20999908
C    15.64000034  12.02000046  51.32999802
C    14.26000023  12.18000031  51.42000198
C    24.27999878  13.01000023  50.61999893
H    24.76149178  12.35857201  51.34931946
H    19.60000038  13.07999992  52.83000183
H    18.50000000  11.05000019  48.44999695
H    21.01000023  11.23000050  47.81000137
H    23.23999786  11.79999924  48.27999878
H    22.01000023  13.14000034  52.25000000
H    13.89999962  12.44999981  52.41000366
H    24.86999893  13.20000076  49.72000122
H    24.11000061  13.96999931  51.11999893
S    13.02999973  11.00000000  47.83000183
C    10.34000015  10.92000008  48.57999802
C    11.64000034  11.21000099  48.90999603
C    12.02999973  11.78999996  50.15999603
C    11.05999947  12.05999947  51.11999893
C     9.72999954  11.69000053  50.84000015
C     8.71999931  11.71000004  51.84999847
C     7.39000034  11.46999931  51.56000137
C     7.00999975  10.98999977  50.27999878
C     7.96000004  10.90000057  49.29000092
C     9.34000015  11.16000080  49.55999756
C    13.48000050  11.87000084  50.31000137
C    14.14999962  11.39000034  49.15999985
C    15.52000046  11.14999962  49.13999939
C     5.56999969  10.67999935  49.95999908
H     5.07371759  11.13374329  49.10214233
H     9.98999977  10.40999985  47.69000244
H    11.32999992  12.46999931  52.09000015
H     9.00000000  12.01000023  52.84999847
H     6.69000053  11.68000031  52.36000061
H     7.67000008  10.57999992  48.29999924
H    16.00000000  10.90000057  48.20000076
H     5.03999996  10.86999989  50.90000153
H     5.42000008   9.59999943  49.82999802
