96

S    16.44000053  11.85999966  59.02000046
C    19.14999962  11.73999977  58.27000046
C    17.86000061  11.28999901  58.11999893
C    17.47999954  10.69000053  56.88000107
C    18.45999908  10.34999943  55.96000290
C    19.82999992  10.65000057  56.18000031
C    20.84000015  10.54999924  55.19000244
C    22.13999939  10.93000031  55.45999908
C    22.52000046  11.50000000  56.70000076
C    21.53000069  11.75000000  57.62000275
C    20.17999840  11.36999989  57.36999893
C    16.03999901  10.82999992  56.70000076
C    15.29000092  11.36999989  57.77000046
C    13.92000008  11.59999943  57.69000244
C    23.97000122  11.82000065  57.00000000
H    24.50330162  11.13026428  57.65418243
H    19.31999969  12.30000019  59.18000031
H    18.15000153  10.08999920  54.95999908
H    20.69000053  10.25000000  54.15000153
H    22.79000092  10.97000027  54.59000015
H    21.77000046  12.20000076  58.57999802
H    13.34000015  12.01000023  58.52000427
H    24.53000069  12.13000107  56.11000061
H    23.90999985  12.76999950  57.54000092
S    12.89999962  10.15999985  54.16999817
C    10.17000008  10.32999992  54.61999893
C    11.44000053  10.67999935  55.02999878
C    11.75000000  11.21000099  56.31999969
C    10.69000053  11.30000019  57.19999695
C     9.38000011  10.86999989  56.86000061
C     8.23999977  10.98000050  57.70999908
C     6.98000002  10.80999947  57.18999863
C     6.67999983  10.34000015  55.87999725
C     7.77999973  10.11000061  55.07999802
C     9.10000038  10.34999943  55.54999924
C    13.19000053  11.25000000  56.55000305
C    13.94999981  10.60999966  55.52999878
C    15.31999969  10.43000031  55.56000137
C     5.23000002  10.14999962  55.50000000
H     4.83934450  10.64719772  54.61214828
H     9.81999969   9.96000004  53.66000366
H    10.82999992  11.59000015  58.23999786
H     8.27999973  11.25000000  58.75999832
H     6.15000010  10.98999977  57.87000275
H     7.69999981   9.78999996  54.03999710
H    15.80999947   9.89000034  54.75999832
H     4.61000013  10.52000046  56.32999802
H     5.13000011   9.06000042  55.47000122
S    13.48000050   8.30000019  51.18000031
C    10.81999969   7.88999987  51.72999954
C    12.11999989   7.59000015  52.06999969
C    12.58999920   6.98000002  53.27000046
C    11.59999943   6.53999996  54.13999939
C    10.22999954   6.65000010  53.79000092
C     9.13000011   6.12999964  54.52999878
C     7.79999971   6.25000000  54.16999817
C     7.46000004   7.00000000  53.02000046
C     8.47999954   7.55000019  52.25999832
C     9.84000015   7.35000038  52.60000229
C    14.02999973   7.00999975  53.46000290
C    14.63999939   7.76999998  52.42000198
C    15.98999977   8.05999947  52.36999893
C     6.02999973   7.35000038  52.70000076
H     5.60181665   6.82904387  51.84363556
H    10.48999977   8.52000046  50.90000153
H    11.82000065   5.84000015  54.93999863
H     9.40999985   5.58000040  55.41999817
H     7.02000046   5.96000004  54.86999893
H     8.22000027   8.15999985  51.39999771
H    16.45000076   8.65999985  51.58000183
H     5.47999954   7.23999977  53.64999771
H     5.96000004   8.43000031  52.50000000
S    17.35999870   6.38999987  55.72000122
C    20.03999901   6.98999977  55.08999634
C    18.71000099   7.05999947  54.77000427
C    18.26000023   7.62000036  53.53000259
C    19.18000031   8.19999981  52.67000198
C    20.56999969   8.09000015  52.90999985
C    21.55999947   8.43000031  51.93999863
C    22.88999939   8.19000053  52.19999695
C    23.25000000   7.44000006  53.34999847
C    22.32999992   6.97000027  54.26000214
C    20.98999977   7.40999985  54.10999680
C    16.80999947   7.55000019  53.37999725
C    16.21000099   6.84999990  54.45000076
C    14.82999992   6.65000010  54.54999924
C    24.70999908   7.16000032  53.60000229
H    25.07980156   7.57247210  54.53873062
H    20.32999992   6.63000011  56.06999969
H    18.76000023   8.60000038  51.75000000
H    21.11999893   8.64999962  50.97000122
H    23.61000061   8.38000011  51.40999603
H    22.65999985   6.34999990  55.08999634
H    14.40999985   6.28000021  55.47999954
H    25.23999977   7.59999990  52.75000000
H    24.79000092   6.06999969  53.72000122
