96

S    16.10999870  12.15999985  58.89999771
C    18.84000015  12.17000008  58.34999847
C    17.56999969  11.79999924  57.95999908
C    17.20000076  11.18000031  56.72000122
C    18.23999977  10.85000038  55.86999893
C    19.55999947  11.31000042  56.11999893
C    20.66999817  11.07999992  55.26000214
C    21.97000122  11.31999969  55.65000153
C    22.20999908  12.02999973  56.86000061
C    21.17000198  12.28000069  57.72999573
C    19.82999992  11.97999954  57.36000061
C    15.76000023  11.06999969  56.52000046
C    15.03000069  11.65999985  57.57999802
C    13.64999962  11.80999947  57.68000031
C    23.61000061  12.48000050  57.22000122
H    24.17936325  11.76829529  57.81783295
H    18.98999977  12.57999992  59.34999847
H    18.01000023  10.25000000  55.00000000
H    20.52000046  10.71000004  54.25000000
H    22.77000046  10.86999989  55.06999969
H    21.35000038  12.65999985  58.73000336
H    13.19000053  12.07999992  58.61999893
H    24.15999985  12.76000023  56.31000137
H    23.52000046  13.38999939  57.81999969
S    12.60000038  10.25000000  54.18000031
C     9.86999989  10.31000042  54.75999832
C    11.16000080  10.60999966  55.13999939
C    11.51999950  11.21000099  56.38999939
C    10.52000046  11.59999943  57.27000427
C     9.18000031  11.31000042  56.91999817
C     8.11999989  11.46999931  57.84999847
C     6.84000015  11.05999947  57.54000092
C     6.48999977  10.44000053  56.31999969
C     7.49000025  10.34000015  55.38000107
C     8.85000038  10.65999985  55.68000031
C    12.96000004  11.35000038  56.55000305
C    13.68999958  10.85000038  55.45000076
C    15.06999969  10.67000008  55.37000275
C     5.10999966   9.89999962  56.00999832
H     4.73351765  10.35461998  55.09365845
H     9.73999977   9.85000038  53.79000092
H    10.71000004  12.01000023  58.26000214
H     8.38999939  11.73999977  58.86000061
H     6.09000015  11.10000038  58.31999969
H     7.26999998   9.82999992  54.45000076
H    15.60999966  10.26000023  54.52999878
H     4.51999998  10.10000038  56.90999985
H     5.19000006   8.80999947  55.89000320
S    13.23999977   8.64999962  51.14999771
C    10.59000015   7.90000010  51.66999817
C    11.92000008   7.83999968  52.02000046
C    12.35000038   7.11000013  53.16999817
C    11.39000034   6.46000004  53.93000031
C    10.01000023   6.53999996  53.66000366
C     9.06000042   6.14000034  54.65000153
C     7.73999977   6.32999992  54.31999969
C     7.30000019   6.98999977  53.15000153
C     8.23000050   7.49000025  52.28000259
C     9.61999989   7.25000000  52.47000122
C    13.80000019   7.22000027  53.27999878
C    14.42000008   8.05999947  52.32999802
C    15.78999996   8.30999947  52.35000229
C     5.84000015   7.36000013  52.97000122
H     5.44923687   6.76319790  52.14584732
H    10.26000023   8.47999954  50.80999756
H    11.76000023   5.92999983  54.80999756
H     9.48999977   5.95000029  55.63000107
H     7.04999971   5.96000004  55.07999802
H     7.95000029   8.21000004  51.51000214
H    16.21000099   9.02999973  51.65000153
H     5.23000002   7.21000004  53.87000275
H     5.72000027   8.39999962  52.63999939
S    17.02000046   6.44000006  55.65000153
C    19.69000053   7.23000002  55.17000198
C    18.36000061   7.23000002  54.80999756
C    17.97999954   7.83999968  53.56999969
C    18.88000107   8.47000027  52.74000168
C    20.25000000   8.43000031  53.08000183
C    21.28000069   8.92000008  52.22999954
C    22.60000038   8.60999966  52.50000000
C    22.98999977   7.86000013  53.62999725
C    22.04000092   7.65999985  54.61999893
C    20.66999817   7.72000027  54.26000214
C    16.54000092   7.69999981  53.36000061
C    15.88999939   6.98000002  54.38999939
C    14.53999996   6.67999983  54.34000015
C    24.46000099   7.59999990  53.85000229
H    24.78710747   7.65688801  54.88820648
H    20.02000046   6.65000010  56.03000259
H    18.53999901   8.97999954  51.84000015
H    21.02000046   9.48000050  51.33999634
H    23.36000061   9.04999924  51.84999847
H    22.34999847   7.30000019  55.59999847
H    14.02999973   6.11999989  55.13000107
H    25.09000015   8.19000053  53.16999817
H    24.70000076   6.58999968  53.47999954
