96

S    16.72999954  12.20000076  58.82999802
C    19.42000008  12.43000031  58.04999924
C    18.12000084  12.07999992  57.74000168
C    17.85000038  11.44999981  56.47999573
C    18.84000015  11.21999931  55.54000092
C    20.13999939  11.68000031  55.84999847
C    21.21999931  11.36000061  54.97000122
C    22.52000046  11.56999969  55.34999847
C    22.82999992  12.28999996  56.53999710
C    21.83000183  12.56999969  57.43999863
C    20.48000145  12.20999908  57.14000320
C    16.39999962  11.35000038  56.36000061
C    15.65000057  11.76000023  57.49000168
C    14.27000046  11.85999966  57.57999802
C    24.27999878  12.61000061  56.83000183
H    24.66309738  11.97859859  57.63166809
H    19.55000114  12.97000027  58.99000168
H    18.63000107  10.62000084  54.65999985
H    20.97999954  10.95999908  53.99000168
H    23.38999939  11.33999920  54.73999786
H    22.01000023  13.12000084  58.36000061
H    13.80000019  12.22000027  58.47999954
H    24.79000092  12.65999985  55.86000061
H    24.25000000  13.63000011  57.22000122
S    13.12999916  10.76000023  54.01000214
C    10.39999962  10.57000065  54.72000122
C    11.69000053  10.93000031  55.02999878
C    12.07999992  11.39999962  56.32999802
C    11.10999966  11.54999924  57.29999924
C     9.77999973  11.18000031  56.98999786
C     8.80999947  11.31000042  58.02999878
C     7.53000021  10.86999989  57.75000000
C     7.14999962  10.25000000  56.52999878
C     8.10999966  10.03999901  55.56000137
C     9.39999962  10.60999966  55.72000122
C    13.53000069  11.51000023  56.44000244
C    14.27999973  11.09000015  55.31999969
C    15.67000008  10.98999977  55.21999741
C     5.73000002   9.77000046  56.33999634
H     5.23786306  10.39052105  55.59109497
H    10.21000004  10.10000038  53.75999832
H    11.28999901  11.77999973  58.34999847
H     9.02999973  11.75000000  58.99000168
H     6.84000015  11.02000046  58.57999802
H     7.85000038   9.64999962  54.58000183
H    16.23999977  10.62000084  54.38000107
H     5.18000031   9.59000015  57.28000259
H     5.79999971   8.73000050  56.00000000
S    13.48000050   8.60999966  51.38999939
C    10.84000015   8.01999950  52.14000320
C    12.18000031   8.00000000  52.43000031
C    12.74000072   7.40999985  53.61000061
C    11.80999947   6.81999969  54.45000076
C    10.42000008   6.80000019  54.22000122
C     9.52999973   6.21999979  55.17000198
C     8.17000008   6.17000008  54.93999863
C     7.69999981   6.71999979  53.72000122
C     8.52000046   7.22000027  52.74000168
C     9.92000008   7.32999992  52.97999954
C    14.18000031   7.55000019  53.73000336
C    14.72000027   8.23999977  52.61000061
C    16.04999924   8.61999989  52.69000244
C     6.21000004   6.67000008  53.43999863
H     5.96791697   6.99752426  52.42894745
H    10.34999943   8.56000042  51.33999634
H    12.15999985   6.32999992  55.35999680
H     9.98000050   5.91000032  56.11000061
H     7.55999994   5.69000006  55.68999863
H     8.22000027   7.63000011  51.77000046
H    16.53000069   8.97999954  51.77999878
H     5.77000046   5.68000031  53.57999802
H     5.73999977   7.27999973  54.22999954
S    17.52000046   6.98999977  56.04999924
C    20.13999939   7.36999989  55.18000031
C    18.79999924   7.62000036  54.99000168
C    18.30999947   8.28999996  53.81999969
C    19.18000031   8.65999985  52.81999969
C    20.56999969   8.46000004  53.04000092
C    21.53000069   8.93999958  52.09999847
C    22.88000107   8.78000069  52.30999756
C    23.31999969   8.10999966  53.47999954
C    22.46999931   7.63000011  54.45000076
C    21.07999992   7.77999973  54.20000076
C    16.84999847   8.19000053  53.75000000
C    16.29999924   7.48000050  54.85000229
C    14.98999977   7.03000021  54.75000000
C    24.80999947   7.88000011  53.61999893
H    25.17491913   8.26638508  54.57165146
H    20.43999863   6.81999969  56.05999756
H    18.84000015   8.93000031  51.83000183
H    21.19999886   9.22000027  51.10000229
H    23.64999962   8.97999954  51.58000183
H    22.90999985   7.04999971  55.25000000
H    14.51000023   6.46000004  55.52999878
H    25.35000038   8.30999947  52.77000046
H    24.99000168   6.80000019  53.50999832
