96

S    16.10999870  12.15999985  58.89999771
C    18.84000015  12.17000008  58.34999847
C    17.56999969  11.79999924  57.95999908
C    17.20000076  11.18000031  56.72000122
C    18.23999977  10.85000038  55.86999893
C    19.55999947  11.31000042  56.11999893
C    20.66999817  11.07999992  55.26000214
C    21.97000122  11.31999969  55.65000153
C    22.20999908  12.02999973  56.86000061
C    21.17000198  12.28000069  57.72999573
C    19.82999992  11.97999954  57.36000061
C    15.76000023  11.06999969  56.52000046
C    15.03000069  11.65999985  57.57999802
C    13.64999962  11.80999947  57.68000031
C    23.61000061  12.48000050  57.22000122
H    24.17936325  11.76829529  57.81783295
H    18.98999977  12.57999992  59.34999847
H    18.01000023  10.25000000  55.00000000
H    20.52000046  10.71000004  54.25000000
H    22.77000046  10.86999989  55.06999969
H    21.35000038  12.65999985  58.73000336
H    13.19000053  12.07999992  58.61999893
H    24.15999985  12.76000023  56.31000137
H    23.52000046  13.38999939  57.81999969
S    12.60000038  10.25000000  54.18000031
C     9.86999989  10.31000042  54.75999832
C    11.16000080  10.60999966  55.13999939
C    11.51999950  11.21000099  56.38999939
C    10.52000046  11.59999943  57.27000427
C     9.18000031  11.31000042  56.91999817
C     8.11999989  11.46999931  57.84999847
C     6.84000015  11.05999947  57.54000092
C     6.48999977  10.44000053  56.31999969
C     7.49000025  10.34000015  55.38000107
C     8.85000038  10.65999985  55.68000031
C    12.96000004  11.35000038  56.55000305
C    13.68999958  10.85000038  55.45000076
C    15.06999969  10.67000008  55.37000275
C     5.10999966   9.89999962  56.00999832
H     4.73351765  10.35461998  55.09365845
H     9.73999977   9.85000038  53.79000092
H    10.71000004  12.01000023  58.26000214
H     8.38999939  11.73999977  58.86000061
H     6.09000015  11.10000038  58.31999969
H     7.26999998   9.82999992  54.45000076
H    15.60999966  10.26000023  54.52999878
H     4.51999998  10.10000038  56.90999985
H     5.19000006   8.80999947  55.89000320
S    16.93000031  12.43000031  53.11000061
C    19.59000015  12.50000000  52.50000000
C    18.34000015  12.10000038  52.09000015
C    18.00000000  11.59999943  50.79000092
C    19.02000046  11.44000053  49.86999893
C    20.30999947  11.89000034  50.22999573
C    21.40000153  11.79999924  49.31999969
C    22.67000008  12.28999996  49.52999878
C    22.92000008  12.82999992  50.81999969
C    21.98999786  12.68000031  51.81999969
C    20.63999939  12.30000019  51.56999969
C    16.54999924  11.61000061  50.61000061
C    15.85000038  11.92999935  51.79999924
C    14.46000004  11.92999935  51.90000153
C    24.34000015  13.21000004  51.18999863
H    24.73115540  12.57704163  51.98653030
H    19.88000107  12.81000042  53.50000000
H    18.92000008  11.13999939  48.82999802
H    21.15999985  11.47999954  48.31999969
H    23.46999931  12.13999939  48.81000137
H    22.20999908  12.89999962  52.85999680
H    14.04000092  12.05999947  52.88999939
H    25.05000114  13.26000023  50.34999847
H    24.46000099  14.22000027  51.59999847
S    13.38999939  10.93000031  48.22000122
C    10.69000053  10.90999985  48.80000305
C    11.96000004  11.21999931  49.22999954
C    12.27000046  11.63000011  50.56999969
C    11.21999931  11.76000023  51.45999908
C     9.90999985  11.39999962  51.07999802
C     8.76999950  11.42000008  51.93999863
C     7.50999975  11.10999966  51.51000214
C     7.26000023  10.55999947  50.21999741
C     8.34000015  10.50000000  49.36000061
C     9.63000011  10.95999908  49.73999786
C    13.71000099  11.75000000  50.72999954
C    14.44000053  11.44000053  49.55999756
C    15.81999969  11.26000023  49.47000122
C     5.88999987  10.08999920  49.78000259
H     5.38963795  10.82624626  49.15097427
H    10.44000053  10.59999943  47.78999710
H    11.42000008  12.02999973  52.50000000
H     8.94999981  11.75000000  52.95999908
H     6.63999987  11.28000069  52.14000320
H     8.14999962  10.26000023  48.31999969
H    16.31000137  10.82999992  48.60000229
H     5.28999996  10.08999920  50.70000076
H     5.86999989   9.03999996  49.47999954
