96

S    16.97000122  11.90000057  58.79000092
C    19.67000008  12.05000019  58.02999878
C    18.37000084  11.69999981  57.71999741
C    18.04000092  11.21999931  56.40999603
C    19.00000000  11.07999992  55.43000031
C    20.32999992  11.47999954  55.72999954
C    21.37000084  11.31999969  54.77000427
C    22.69000053  11.59000015  55.06000137
C    23.02000046  12.02999973  56.37000275
C    22.06000137  12.13999939  57.35000229
C    20.68000031  11.94000053  57.04999924
C    16.59000015  11.14999962  56.26999664
C    15.88000107  11.51999950  57.43999863
C    14.48999977  11.56999969  57.51999664
C    24.46000099  12.32999992  56.69000244
H    24.92918587  11.51247978  57.23738480
H    20.00000000  12.20999908  59.05000305
H    18.77000046  10.62000084  54.47999954
H    21.15999985  10.90000057  53.79000092
H    23.43000031  11.46000004  54.27999878
H    22.39999962  12.32999992  58.36000061
H    14.00000000  11.69999981  58.47999954
H    24.93999863  12.63000011  55.75000000
H    24.54999924  13.27000046  57.25999832
S    13.35000038  10.51000023  53.86000061
C    10.65999985  10.10000038  54.56999969
C    11.90000057  10.59000015  54.88999939
C    12.30000019  10.98999977  56.20999908
C    11.28000069  11.17000008  57.11999893
C     9.94999981  10.77999973  56.84000015
C     8.85999966  10.85999966  57.76000214
C     7.57000017  10.51000023  57.43000031
C     7.26000023  10.00000000  56.13999939
C     8.30000019   9.81999969  55.26000214
C     9.63000011  10.25000000  55.54000092
C    13.71999931  11.23000050  56.39999771
C    14.42999935  10.86999989  55.21999741
C    15.81999969  10.81999969  55.14999771
C     5.92000008   9.44999981  55.72000122
H     5.48025036  10.00323296  54.89014816
H    10.40999985   9.55000019  53.67000198
H    11.46000004  11.59000015  58.11000061
H     9.03999996  11.17000008  58.77999878
H     6.80000019  10.60999966  58.18000031
H     8.10999966   9.46000004  54.25000000
H    16.31999969  10.60999966  54.20999908
H     5.31000042   9.52999973  56.63000107
H     6.03999996   8.38000011  55.54999924
S    17.35000038  12.39999962  52.58999634
C    20.10999870  12.38000011  51.83000183
C    18.78000069  12.15000057  51.56999969
C    18.40999985  11.67000008  50.27000046
C    19.34000015  11.50000000  49.26000214
C    20.69999886  11.69999981  49.56999969
C    21.77999878  11.75000000  48.62999725
C    23.06999969  12.10000038  48.93000031
C    23.45000076  12.48000050  50.24000168
C    22.44999886  12.53999901  51.18000031
C    21.12999916  12.07999992  50.89000320
C    16.95999908  11.59000015  50.14999771
C    16.21999931  11.98999977  51.29000092
C    14.82999992  12.10000038  51.30000305
C    24.89000130  12.86999893  50.51000214
H    25.34447479  12.13147736  51.17041016
H    20.38000107  12.81000042  52.78999710
H    19.07999992  11.19999981  48.23999786
H    21.48999977  11.49000072  47.62000275
H    23.88000107  11.82999992  48.25000000
H    22.73999977  12.86999893  52.16999817
H    14.35999966  12.46999931  52.19999695
H    25.39999962  12.96000004  49.54000092
H    24.96999931  13.86000061  50.97000122
S    13.68999958  10.62000084  47.81000137
C    10.98999977  10.57999992  48.50999832
C    12.28000069  10.90999985  48.85000229
C    12.64000034  11.57999992  50.06000137
C    11.63000011  11.85999966  50.97000122
C    10.27999973  11.56000042  50.65000153
C     9.19999981  11.69999981  51.56999969
C     7.90000010  11.35000038  51.26999664
C     7.60999966  10.67999935  50.05000305
C     8.60999966  10.51000023  49.12000275
C     9.94000053  10.93000031  49.40000153
C    14.07999992  11.69000053  50.19000244
C    14.78999996  11.25000000  49.03999710
C    16.18000031  11.21999931  49.05000305
C     6.25000000  10.03999901  49.86999893
H     5.65069723  10.59649467  49.14941025
H    10.72999954   9.96999931  47.63999939
H    11.82999992  12.22000027  51.97000122
H     9.42000008  12.07999992  52.56000137
H     7.17000008  11.39000034  52.06999969
H     8.42000008   9.94999981  48.20999908
H    16.67000008  10.88000107  48.13999939
H     5.88999987  10.17000008  50.90000153
H     6.44000006   9.00000000  49.56999969
