96

S    16.57999992  11.76000023  59.22000122
C    19.32999992  11.89000034  58.59000397
C    18.04000092  11.59000015  58.22000122
C    17.76000023  11.19999981  56.86999893
C    18.81999969  11.00000000  56.00999832
C    20.17000008  11.31000042  56.31000137
C    21.28000069  11.13000011  55.43000031
C    22.53999901  11.56000042  55.76000214
C    22.72999954  12.15999985  57.04000092
C    21.68999863  12.28000069  57.91999817
C    20.38000107  11.79999924  57.63999939
C    16.31999969  11.09000015  56.66999817
C    15.54999924  11.42000008  57.81000137
C    14.17000008  11.54999924  57.87000275
C    24.15999985  12.53999901  57.37999725
H    24.66675949  11.82625484  58.02950668
H    19.45999908  12.38999939  59.54999924
H    18.64999962  10.76000023  54.95999908
H    21.11000061  10.59000015  54.50000000
H    23.31000137  11.46000004  55.00000000
H    21.81999969  12.71000004  58.90999603
H    13.55999947  11.94000053  58.68000031
H    24.79999924  12.64999962  56.49000168
H    24.15999985  13.52000046  57.87000275
S    13.25000000  10.62000084  54.03999710
C    10.52999973  10.40999985  54.58000183
C    11.77999973  10.75000000  55.02999878
C    12.13000107  11.18000031  56.36000061
C    11.11999989  11.31000042  57.29000092
C     9.81000042  10.98000050  56.84999847
C     8.71999931  11.10000038  57.75000000
C     7.46000004  10.69000053  57.37999725
C     7.23000002  10.06000042  56.12999725
C     8.19999981  10.01999950  55.15999603
C     9.48000050  10.54999924  55.52000046
C    13.55000019  11.30000019  56.63999939
C    14.25000000  11.00000000  55.45000076
C    15.64000034  10.88000107  55.47000122
C     5.78000021   9.81000042  55.77999878
H     5.39389801  10.38200283  54.93629456
H    10.36000061   9.96999931  53.60000229
H    11.25000000  11.69999981  58.29000092
H     8.90999985  11.51000023  58.74000168
H     6.57999992  10.95000076  57.95999908
H     7.92000008   9.72000027  54.15999985
H    16.15999985  10.53999996  54.58000183
H     5.21000004  10.01000023  56.69000244
H     5.72000027   8.76000023  55.45999908
S    17.34000015  12.42000008  52.74000168
C    20.02000046  12.35000038  52.14000320
C    18.73999977  12.13000107  51.69000244
C    18.39999962  11.73999977  50.35999680
C    19.43000031  11.67000008  49.43999863
C    20.73999786  12.07999992  49.79000092
C    21.86000061  11.89000034  48.94000244
C    23.13999939  12.20999908  49.34000015
C    23.45999908  12.55000019  50.68999863
C    22.40999985  12.56999969  51.56999969
C    21.07000160  12.30000019  51.17000198
C    16.95999908  11.54999924  50.22999573
C    16.28000069  12.05000019  51.37000275
C    14.88999939  12.13000107  51.42000198
C    24.86000061  12.90999985  51.11000061
H    25.16435814  12.35083199  51.99475861
H    20.23999977  12.43999958  53.20000076
H    19.25000000  11.46000004  48.37999725
H    21.65999985  11.28999901  48.06000137
H    23.97999954  11.94000053  48.70999908
H    22.52000046  13.02000046  52.55000305
H    14.37000084  12.39999962  52.32999802
H    25.55000114  12.93000031  50.25000000
H    24.71999931  13.90999985  51.52000046
S    13.68999958  10.84000015  47.83000183
C    11.03999996  11.03999996  48.54999924
C    12.35000038  11.33999920  48.87000275
C    12.72999954  11.85999966  50.13999939
C    11.73999977  12.06999969  51.07999802
C    10.36999893  11.85999966  50.76000214
C     9.39999962  12.02000046  51.79000092
C     8.07999992  11.77999973  51.50000000
C     7.73000002  11.18999958  50.26000214
C     8.67000008  10.85999966  49.31000137
C    10.01999950  11.26999950  49.50000000
C    14.19000053  11.85999966  50.24000168
C    14.82999992  11.31999969  49.09999847
C    16.21999931  11.23999977  49.08000183
C     6.34000015  10.64000034  50.04000092
H     5.86199617  11.19648170  49.23381042
H    10.88000107  10.57000065  47.57999802
H    11.96000004  12.36999989  52.09999847
H     9.64999962  12.20999908  52.84000015
H     7.39000034  12.01000023  52.30999756
H     8.43000031  10.11000061  48.55999756
H    16.76000023  10.98000050  48.18000031
H     5.78999996  10.72999954  50.98999786
H     6.24000025   9.57999992  49.77000427
