96

S    16.54999924  11.64000034  58.88000107
C    19.14999962  11.98999977  58.11999893
C    17.90999985  11.54999924  57.72999573
C    17.51000023  11.16000080  56.40999603
C    18.54999924  11.13000011  55.50000000
C    19.84000015  11.63000011  55.80999756
C    20.86000061  11.51000023  54.81999969
C    22.11999893  11.96000004  55.13999939
C    22.46999931  12.38000011  56.45000076
C    21.50000000  12.46000099  57.43000031
C    20.19000053  12.00000000  57.15000153
C    16.05999947  11.13999939  56.24000168
C    15.46000004  11.43000031  57.49000168
C    14.07999992  11.52999973  57.63000107
C    23.88000107  12.81999969  56.75000000
H    24.31962967  12.24564648  57.56544113
H    19.27000046  12.38999939  59.12000275
H    18.47999954  10.78999996  54.47000122
H    20.59999847  11.05999947  53.86000061
H    22.90999985  11.92000008  54.40000153
H    21.77000046  12.86000061  58.40999985
H    13.48999977  11.85999966  58.47999954
H    24.54999924  12.72999954  55.89000320
H    23.80000114  13.89000034  56.97999954
S    12.65999985  10.47000027  54.10999680
C    10.06999969  10.19000053  54.99000168
C    11.36000061  10.52999973  55.31999969
C    11.80999947  11.00999928  56.59000015
C    10.80999947  11.10999966  57.55000305
C     9.46000004  10.76000023  57.31999969
C     8.39999962  10.81999969  58.26000214
C     7.07000017  10.65999985  57.95999908
C     6.76000023  10.18000031  56.65999985
C     7.71000004  10.10000038  55.66999817
C     9.07999992  10.31999969  56.00000000
C    13.25000000  11.18000031  56.56000137
C    13.88000011  10.84000015  55.34000015
C    15.26000023  10.78999996  55.14999771
C     5.32000017   9.81000042  56.37000275
H     4.88454962  10.25972748  55.47768784
H     9.78999996   9.67000008  54.06999969
H    10.90000057  11.42000008  58.59000397
H     8.64999962  11.11999989  59.27999878
H     6.28999996  10.93999958  58.67000198
H     7.42999983   9.94000053  54.62999725
H    15.71000004  10.44999981  54.22000122
H     4.78999996  10.15999985  57.27000427
H     5.32000017   8.71000004  56.32999802
S    13.60000038   8.51000023  50.98999786
C    10.95000076   8.05000019  51.72000122
C    12.28000069   7.78999996  51.93999863
C    12.72999954   7.17999983  53.15000153
C    11.84999943   6.56000042  54.01000214
C    10.47000027   6.70000029  53.74000168
C     9.52000046   6.11999989  54.61999893
C     8.18000031   6.34000015  54.40999985
C     7.71000004   7.05999947  53.27999878
C     8.60999966   7.57000017  52.36999893
C    10.01000023   7.42000008  52.57999802
C    14.13000011   7.49000025  53.40999985
C    14.73000050   8.18000031  52.31999969
C    16.07999992   8.51000023  52.36000061
C     6.28000021   7.50999975  53.11000061
H     5.74501133   6.97501135  52.32535172
H    10.59999943   8.67999935  50.90999985
H    12.06999969   6.03999996  54.93999863
H     9.85000038   5.46999979  55.43000031
H     7.51999950   6.05000019  55.22999573
H     8.26000023   8.22000027  51.58000183
H    16.48999977   8.85999966  51.42000198
H     5.86000013   7.42999983  54.13000107
H     6.34000015   8.56999969  52.83000183
S    17.43999863   6.98999977  55.75000000
C    20.13000107   7.40000010  54.98000336
C    18.78999901   7.53000021  54.72999954
C    18.34000015   8.19999981  53.54000092
C    19.27999878   8.64999962  52.63000107
C    20.65999985   8.67000008  52.90999985
C    21.61000061   9.18000031  51.97999954
C    22.95000076   9.15999985  52.29999924
C    23.39999962   8.59000015  53.52000427
C    22.47999954   8.09000015  54.40000153
C    21.07999992   8.00000000  54.10999680
C    16.88999939   8.13000011  53.43999863
C    16.25000000   7.50000000  54.54000092
C    14.91000080   7.13000011  54.52000046
C    24.86999893   8.31999969  53.75000000
H    25.27635574   8.69071102  54.69103622
H    20.58000183   6.89000034  55.81999969
H    18.96999931   9.07999992  51.68000031
H    21.15999985   9.63999939  51.10000229
H    23.46999931   9.30000019  51.36000061
H    22.92000008   7.63000011  55.27999878
H    14.45000076   6.52999973  55.28999710
H    25.52000046   8.78000069  52.98999786
H    25.06000137   7.23999977  53.66000366
