96

S    16.64999962  12.18999958  58.72000122
C    19.27000046  12.44999981  57.98999786
C    18.02000046  11.98999977  57.62000275
C    17.70000076  11.54999924  56.30000305
C    18.68999863  11.54999924  55.33000183
C    20.03000069  11.84000015  55.68999863
C    21.11999893  11.72999954  54.79000092
C    22.34999847  12.13999939  55.24000168
C    22.65999985  12.72999954  56.49000168
C    21.61999893  12.64999962  57.39999771
C    20.29000092  12.31999969  57.02000046
C    16.26000023  11.42000008  56.17000198
C    15.57999992  11.79999924  57.36000061
C    14.19000053  11.84999943  57.39999771
C    24.03000069  13.27000046  56.83000183
H    24.64773750  12.51735497  57.31992722
H    19.47000122  12.89000034  58.96999741
H    18.45999908  11.06999969  54.38000107
H    20.93000031  11.39000034  53.76999664
H    23.21000099  11.94000053  54.59999847
H    21.87000084  12.88000011  58.43000031
H    13.76999950  12.05999947  58.36999893
H    24.48999786  13.63999939  55.90999985
H    23.90000153  14.18000031  57.43000031
S    12.98999977  10.78999996  53.75000000
C    10.36999893  10.29999924  54.54999924
C    11.61000061  10.80999947  54.86999893
C    11.96000004  11.28000069  56.17000198
C    10.95999908  11.23999977  57.11999893
C     9.61000061  10.98000050  56.77000046
C     8.52999973  11.00000000  57.69000244
C     7.26999998  10.55999947  57.34000397
C     6.97000027  10.08999920  56.04000092
C     7.99000025   9.98999977  55.13000107
C     9.30999947  10.42000008  55.47999954
C    13.38000107  11.56999969  56.29000092
C    14.06999969  11.21000099  55.10000229
C    15.46000004  11.09000015  55.06999969
C     5.52999973   9.75000000  55.70000076
H     5.14621115  10.27593327  54.82581329
H    10.26000023   9.84000015  53.56999969
H    11.10000038  11.51000023  58.15999985
H     8.73999977  11.28000069  58.72000122
H     6.47000027  10.65000057  58.06999969
H     7.88000011   9.65999985  54.09999847
H    15.93000031  10.57999992  54.22999954
H     4.84000015   9.96999931  56.52000046
H     5.47999954   8.69000053  55.45000076
S    13.22000027   8.71999931  50.94999695
C    10.59000015   8.02999973  51.72000122
C    11.95000076   8.05000019  51.97999954
C    12.42000008   7.42000008  53.18000031
C    11.59000015   6.93000031  54.16999817
C    10.19999981   7.05999947  53.94000244
C     9.31999969   6.40999985  54.84000397
C     7.97999954   6.21999979  54.58000183
C     7.48000050   6.72999954  53.34999847
C     8.28999996   7.37999964  52.44999695
C     9.68999958   7.50999975  52.67000198
C    13.86000061   7.57999992  53.29999924
C    14.40999985   8.25000000  52.18000031
C    15.77000046   8.53999996  52.05999756
C     6.17000008   6.19000006  52.81999969
H     5.63859510   6.92688179  52.21774292
H    10.13000011   8.40999985  50.81999969
H    12.00000000   6.30999994  54.97000122
H     9.85999966   5.88000011  55.63000107
H     7.42000008   5.53999996  55.20999908
H     7.97999954   7.57000017  51.42000198
H    16.17000008   9.10000038  51.22000122
H     6.28000021   5.23000002  52.30999756
H     5.55999994   5.97000027  53.70999908
S    17.27000046   7.20000029  55.47000122
C    19.85999870   8.00000000  54.89999771
C    18.53999901   8.02999973  54.52999878
C    18.00000000   8.47999954  53.27999878
C    18.88000107   9.03999996  52.36999893
C    20.26000023   8.97000027  52.67000198
C    21.11999893   9.48000050  51.65000153
C    22.47999954   9.35000038  51.79000092
C    23.00000000   8.92000008  53.04000092
C    22.19000053   8.47000027  54.06000137
C    20.76999855   8.47000027  53.92000198
C    16.56999969   8.23000050  53.16999817
C    16.00000000   7.55999994  54.27999878
C    14.68000031   7.14999962  54.34999847
C    24.47000122   9.06000042  53.36000061
H    24.71936417   8.59689713  54.31470108
H    20.19000053   7.59000015  55.84999847
H    18.54999924   9.35999966  51.38999939
H    20.69000053   9.98000050  50.79000092
H    23.23999786   9.82999992  51.18999863
H    22.65000153   8.18000031  55.00000000
H    14.28999996   6.67000008  55.24000168
H    24.60000038  10.14999962  53.40999985
H    25.00999832   8.55000019  52.56000137
