96

S    16.25000000  11.64999962  58.90999603
C    18.96999931  11.56000042  58.22999954
C    17.67000008  11.23999977  57.93000031
C    17.22999954  10.72000027  56.65999985
C    18.20999908  10.52999973  55.70000076
C    19.54000092  10.93000031  55.93999863
C    20.52000046  11.02000046  54.89999771
C    21.84000015  11.31999969  55.13000107
C    22.23999977  11.61000061  56.46999741
C    21.32999802  11.68000031  57.50000000
C    19.96999931  11.36999989  57.23999786
C    15.78999996  10.76000023  56.49000168
C    15.10000038  11.18999958  57.64999771
C    13.71000099  11.33999920  57.61000061
C    23.67000198  12.05000019  56.69000244
H    24.18233109  11.48074436  57.46561050
H    19.23999977  11.90000057  59.22999954
H    17.94999886  10.14000034  54.72000122
H    20.17999840  10.65999985  53.94000244
H    22.59000015  11.25000000  54.34999847
H    21.61000061  11.96000004  58.50999832
H    13.17000008  11.56999969  58.53000259
H    24.18999863  12.10000038  55.72999954
H    23.59999847  13.12999916  56.84000015
S    12.65999985  10.29000092  53.89999771
C     9.89999962  10.39000034  54.61999893
C    11.21999931  10.67000008  54.86000061
C    11.61000061  11.18000031  56.13999939
C    10.65000057  11.39000034  57.11999893
C     9.27999973  11.07999992  56.93999863
C     8.27999973  11.09000015  57.95000076
C     6.98000002  10.71000004  57.74000168
C     6.63999987  10.25000000  56.44000244
C     7.59000015  10.13000011  55.45000076
C     8.93999958  10.53999996  55.65000153
C    13.04999924  11.23999977  56.38000107
C    13.73000050  10.82999992  55.20999908
C    15.10000038  10.60999966  55.27999878
C     5.23000002   9.77000046  56.20999908
H     4.80173397  10.06978703  55.25354004
H     9.47000027  10.13000011  53.66000366
H    10.97000027  11.75000000  58.09000015
H     8.67000008  11.64000034  58.81000137
H     6.15999985  11.05999947  58.36000061
H     7.30000019   9.51000023  54.61000061
H    15.62999916  10.34000015  54.36999893
H     4.55999994  10.08999920  57.02000046
H     5.26000023   8.67000008  56.17000198
S    12.86999893   8.23999977  51.04000092
C    10.24000072   7.67000008  51.76000214
C    11.57999992   7.46000004  51.97999954
C    12.02000046   6.93000031  53.22999954
C    11.07999992   6.46000004  54.13000107
C     9.68999958   6.51999998  53.85000229
C     8.71000004   6.01999998  54.75000000
C     7.39000034   6.24000025  54.45999908
C     6.91999960   6.94000006  53.31999969
C     7.86000013   7.40000010  52.42000198
C     9.25000000   7.22000027  52.67000198
C    13.45999908   7.04999971  53.31999969
C    14.06000042   7.82000017  52.29000092
C    15.36999893   8.27999973  52.36999893
C     5.45000029   6.94999981  52.97999954
H     5.30727530   6.21496773  52.18787766
H     9.81000042   8.23999977  50.94999695
H    11.28999901   6.28000021  55.19000244
H     9.11999989   5.69999981  55.70999908
H     6.69000053   5.89999962  55.20999908
H     7.53999996   7.88000011  51.50000000
H    15.75000000   8.92000008  51.58000183
H     4.79999971   6.71000004  53.83999634
H     5.09999990   7.92000008  52.57999802
S    16.77000046   6.63999987  55.68000031
C    19.47000122   6.98000002  54.93999863
C    18.13999939   7.25000000  54.72000122
C    17.68000031   7.90000010  53.53000259
C    18.63999939   8.34000015  52.63999939
C    20.02000046   8.22000027  52.90999985
C    20.96999931   8.82999992  52.04999924
C    22.29999924   8.56000042  52.25999832
C    22.78000069   7.82000017  53.36999893
C    21.86000061   7.32999992  54.27000046
C    20.45999908   7.57000017  54.12000275
C    16.22999954   7.85000038  53.40000153
C    15.59000015   7.17999983  54.47000122
C    14.26000023   6.78999996  54.43999863
C    24.25000000   7.50000000  53.47000122
H    24.69924545   8.07047176  54.28292084
H    19.81999969   6.38000011  55.77000046
H    18.42000008   8.80000019  51.66999817
H    20.62999916   9.38000011  51.17000198
H    23.05000114   8.92000008  51.56000137
H    22.18000031   6.84000015  55.19000244
H    13.81999969   6.34999990  55.31999969
H    24.76000023   7.69000006  52.51999664
H    24.23999977   6.46000004  53.81000137
