96

S    16.68000031  12.01000023  59.09999847
C    19.38999939  12.13000107  58.41999817
C    18.09999847  11.78999996  58.06999969
C    17.72999954  11.10999966  56.86000061
C    18.71000099  10.85999966  55.90999985
C    20.02000046  11.31999969  56.18000031
C    21.02999878  11.18999958  55.19000244
C    22.34000015  11.52999973  55.44000244
C    22.69000053  12.11999989  56.69000244
C    21.76000214  12.20000076  57.69000244
C    20.39999962  11.84000015  57.47000122
C    16.29999924  11.03999996  56.63999939
C    15.59999943  11.46000004  57.80000305
C    14.23999977  11.72000027  57.74000168
C    24.09000015  12.64999962  56.91999817
H    24.52470589  11.98725414  57.66826248
H    19.67000008  12.64999962  59.33000183
H    18.37000084  10.53999996  54.93000031
H    20.86000061  10.82999992  54.18000031
H    23.09999847  11.47999954  54.66999817
H    22.10000038  12.65999985  58.61999893
H    13.81000042  12.20000076  58.61000061
H    24.67000008  12.68000031  56.00000000
H    24.13999939  13.71000099  57.19999695
S    13.03999996  10.19999981  54.27000046
C    10.34999943  10.32999992  54.92000198
C    11.64000034  10.71000004  55.22999573
C    12.02999973  11.32999992  56.45999908
C    11.03000069  11.64999962  57.36000061
C     9.68999958  11.28000069  57.06999969
C     8.61999989  11.46999931  57.97999954
C     7.31999969  11.13999939  57.70999908
C     6.96000004  10.57000065  56.45999908
C     7.95000029  10.36000061  55.52999878
C     9.30999947  10.65000057  55.83000183
C    13.47000027  11.40999985  56.60999680
C    14.14999962  10.77000046  55.54000092
C    15.52999973  10.59999943  55.56000137
C     5.56999969  10.14000034  56.05999756
H     5.18545771  10.76666164  55.25531006
H    10.18000031   9.89999962  53.93000031
H    11.28000069  11.95000076  58.36999893
H     8.93999958  11.92000008  58.92000198
H     6.61000013  11.33999920  58.52000427
H     7.71000004  10.10000038  54.50000000
H    16.03000069  10.21000004  54.66999817
H     4.94999981  10.19000053  56.95999908
H     5.63000011   9.06999969  55.81999969
S    13.22999954   8.38999939  50.93000031
C    10.59000015   8.00000000  51.70000076
C    11.90999985   7.71000004  51.90999985
C    12.35999966   7.16000032  53.15000153
C    11.44000053   6.77999973  54.10999680
C    10.06000042   6.94999981  53.89999771
C     9.03999996   6.63000011  54.84000397
C     7.72000027   6.90999985  54.55999756
C     7.30000019   7.40999985  53.29999924
C     8.26000023   7.59000015  52.32999802
C     9.63999939   7.53999996  52.64999771
C    13.78999901   7.37999964  53.31999969
C    14.37999916   8.10000038  52.25000000
C    15.73999977   8.34999943  52.21000290
C     5.82000017   7.48000050  53.02000046
H     5.52876568   7.68599510  51.99002457
H    10.24000072   8.59000015  50.84999847
H    11.78999996   6.53999996  55.11000061
H     9.38000011   5.89999962  55.56000137
H     6.97000027   6.75000000  55.33000183
H     7.95000029   7.96999979  51.36000061
H    16.23999977   8.78000069  51.33999634
H     5.25000000   6.63000011  53.43999863
H     5.38000011   8.27999973  53.62999725
S    17.13999939   6.78999996  55.65000153
C    19.78999901   7.44999981  54.95999908
C    18.44000053   7.53000021  54.69999695
C    17.93000031   8.18000031  53.54000092
C    18.78000069   8.89000034  52.70999908
C    20.17000008   8.76999950  52.95999908
C    21.09999847   9.31999969  52.02999878
C    22.46000099   9.13999939  52.15000153
C    22.95999908   8.51000023  53.33000183
C    22.13000107   7.96000004  54.27999878
C    20.72999954   8.05999947  54.08000183
C    16.51000023   7.96000004  53.30999756
C    15.95000076   7.30000019  54.43999863
C    14.57999992   7.03999996  54.43000031
C    24.44999886   8.28999996  53.40999985
H    24.79102898   8.48893356  54.42598343
H    20.29000092   6.94999981  55.77999878
H    18.46999931   9.35999966  51.79000092
H    20.63999939   9.84000015  51.20999908
H    23.15000153   9.50000000  51.39999771
H    22.43000031   7.34000015  55.12000275
H    14.15999985   6.46000004  55.24000168
H    24.93999863   9.01000023  52.74000168
H    24.63000107   7.26999998  53.04999924
