96

S    17.19000053  12.27000046  58.68000031
C    19.86999893  12.23000050  57.91999817
C    18.55999947  11.92999935  57.60000229
C    18.18000031  11.36999989  56.33999634
C    19.12999916  11.23000050  55.34999847
C    20.48000145  11.59000015  55.61000061
C    21.57999992  11.54000092  54.69999695
C    22.82999992  12.06999969  54.92000198
C    23.19000053  12.43999958  56.24000168
C    22.20999908  12.38000011  57.21000290
C    20.85000038  12.09000015  56.90000153
C    16.73999977  11.19999981  56.29000092
C    16.06999969  11.63000011  57.45999908
C    14.68999958  11.51000023  57.62000275
C    24.56999969  12.90999985  56.65000153
H    24.97462082  12.36340618  57.50183487
H    20.06999969  12.76000023  58.83999634
H    18.88000107  10.84000015  54.36000061
H    21.45000076  10.95000076  53.80000305
H    23.51000023  11.85999966  54.09999847
H    22.37999916  12.55000019  58.27000046
H    14.23999977  12.00000000  58.47000122
H    25.19000053  12.79000092  55.75000000
H    24.59000015  14.01000023  56.66999817
S    13.56999969  10.62999916  53.90999603
C    10.86999989  10.59000015  54.51000214
C    12.15000057  10.80999947  54.97000122
C    12.48999977  11.11999989  56.32999802
C    11.44000053  11.54000092  57.11999893
C    10.11000061  11.33999920  56.70999908
C     9.00000000  11.42000008  57.61000061
C     7.75000000  11.05999947  57.15999985
C     7.46000004  10.59000015  55.86000061
C     8.51000023  10.36999893  55.00000000
C     9.78999996  10.84000015  55.40000153
C    13.94000053  11.13000011  56.50000000
C    14.63999939  10.73999977  55.31999969
C    16.02000046  10.77000046  55.17000198
C     6.07999992  10.07999992  55.51000214
H     5.53350067  10.85361671  54.97060013
H    10.62999916  10.08999920  53.57999802
H    11.65999985  11.77999973  58.15999985
H     9.11999989  11.71000004  58.64999771
H     6.90000010  11.18999958  57.83000183
H     8.38999939   9.88000011  54.02999878
H    16.52000046  10.60999966  54.22000122
H     5.47999954   9.89000034  56.39999771
H     6.14000034   9.10000038  55.01999664
S    13.45999908   8.73999977  50.86999893
C    10.77000046   8.15999985  51.51000214
C    12.11999989   8.05000019  51.79999924
C    12.56000042   7.28999996  52.93000031
C    11.64999962   6.83000040  53.86000061
C    10.26999950   7.00000000  53.61999893
C     9.34000015   6.51999998  54.58000183
C     7.99000025   6.57999992  54.29999924
C     7.55000019   7.17000008  53.09000015
C     8.42000008   7.67000008  52.15000153
C     9.81999969   7.63999987  52.41000366
C    14.00000000   7.46999979  53.09999847
C    14.65999985   8.10999966  52.02000046
C    16.00000000   8.46000004  51.95000076
C     6.09000015   7.50000000  52.90000153
H     5.66530704   7.02575970  52.01522446
H    10.38000011   8.60000038  50.59999847
H    11.97999954   6.43000031  54.81999969
H     9.64999962   6.00000000  55.48999786
H     7.34000015   6.11000013  55.02999878
H     8.14000034   8.19000053  51.23000336
H    16.40999985   9.07999992  51.14999771
H     5.47999954   7.14999962  53.74000168
H     5.86999989   8.56999969  52.81000137
S    17.29999924   7.05999947  55.45000076
C    19.96000099   7.73999977  54.88999939
C    18.63000107   7.79999971  54.54000092
C    18.17000008   8.38000011  53.31999969
C    19.09000015   8.93000031  52.44999695
C    20.46999931   8.89000034  52.74000168
C    21.45000076   9.32999992  51.79999924
C    22.78000069   9.09000015  52.02000046
C    23.21000099   8.38000011  53.16999817
C    22.29000092   7.96000004  54.10999680
C    20.89999962   8.23000050  53.94000244
C    16.73999977   8.18000031  53.09999847
C    16.13000107   7.49000025  54.18000031
C    14.78000069   7.16000032  54.22000122
C    24.67000008   8.14000034  53.47999954
H    25.00366974   8.43817425  54.47391129
H    20.22999954   7.13000011  55.75000000
H    18.72999954   9.26999950  51.47999573
H    21.09000015   9.68000031  50.83000183
H    23.52000046   9.32999992  51.25999832
H    22.63000107   7.51999950  55.04000092
H    14.30999947   6.71000004  55.07999802
H    25.28000069   8.56000042  52.68000031
H    24.84999847   7.04999971  53.47000122
