96

S    16.67000008  12.92000008  58.74000168
C    19.40999985  12.81999969  58.18999863
C    18.12999916  12.48999977  57.83000183
C    17.86000061  11.73999977  56.63999939
C    18.89999962  11.33999920  55.80999756
C    20.20999908  11.78999996  56.10000229
C    21.25999832  11.49000072  55.18000031
C    22.56999969  11.84000015  55.41999817
C    22.84000015  12.48000050  56.65999985
C    21.84999847  12.82999992  57.55000305
C    20.48000145  12.53999901  57.29999924
C    16.43000031  11.61000061  56.44000244
C    15.65999985  12.15000057  57.50000000
C    14.27000046  12.13000107  57.50000000
C    24.23999977  12.90999985  57.04000092
H    24.64640808  12.48933125  57.95976639
H    19.75000000  13.19000053  59.15999985
H    18.88000107  10.86999989  54.82999802
H    20.89999962  11.03000069  54.27000046
H    23.31000137  11.63000011  54.65999985
H    22.15999985  13.34000015  58.44999695
H    13.63000011  12.48000050  58.29999924
H    24.93000031  12.69999981  56.20999908
H    24.06999969  13.99000072  56.93000031
S    13.28999996  10.93000031  53.88000107
C    10.52000046  10.70000076  54.52999878
C    11.79999924  11.11999989  54.82999802
C    12.15999985  11.69000053  56.09000397
C    11.13000011  12.05000019  56.93999863
C     9.78999996  11.69999981  56.63000107
C     8.73000050  11.95000076  57.54000092
C     7.46000004  11.49000072  57.29000092
C     7.11000013  10.85000038  56.06999969
C     8.11999989  10.57999992  55.18000031
C     9.47000027  10.95000076  55.44000244
C    13.59000015  11.71000004  56.35000229
C    14.37000084  11.26999950  55.24000168
C    15.73999977  11.06999969  55.34000015
C     5.68000031  10.47000027  55.73999786
H     5.35411263  10.89507103  54.79067612
H    10.31000042  10.15999985  53.61000061
H    11.49000072  12.28000069  57.94000244
H     9.02000046  12.23000050  58.54999924
H     6.71000004  11.61999893  58.06999969
H     7.92999983   9.94999981  54.31000137
H    16.28000069  10.80000019  54.43999863
H     5.03000021  10.95999908  56.46999741
H     5.53999996   9.39000034  55.79000092
S    13.48000050   8.65999985  51.22000122
C    10.80000019   8.22000027  51.69000244
C    12.09000015   7.96999979  52.09000015
C    12.51999950   7.30000019  53.27999878
C    11.51999950   6.88000011  54.13999939
C    10.17000008   7.07000017  53.76999664
C     9.10000038   6.47000027  54.48999786
C     7.77999973   6.71999979  54.22000122
C     7.44999981   7.57000017  53.13999939
C     8.43000031   8.17000008  52.37999725
C     9.78999996   7.83999968  52.61000061
C    13.94000053   7.42999983  53.54000092
C    14.60000038   8.14000034  52.50000000
C    15.93000031   8.52999973  52.49000168
C     6.01000023   7.78999996  52.70999908
H     5.58986187   6.97108603  52.12607956
H    10.59000015   8.69000053  50.72999954
H    11.73999977   6.34999990  55.06000137
H     9.35000038   5.82999992  55.34000015
H     7.11000013   6.24000025  54.93000031
H     8.14000034   8.73000050  51.50000000
H    16.36999893   9.11999989  51.69000244
H     5.42000008   8.01000023  53.61000061
H     5.96000004   8.73000050  52.15000153
S    17.19000053   6.97000027  55.91999817
C    19.88000107   7.46999979  55.31999969
C    18.54999924   7.63000011  54.99000168
C    18.11000061   8.21000004  53.75999832
C    19.05999947   8.73000050  52.90000153
C    20.43999863   8.56000042  53.18999863
C    21.40999985   8.90999985  52.21000290
C    22.75000000   8.80999947  52.51999664
C    23.13999939   8.28999996  53.77999878
C    22.23999977   7.86999989  54.72999954
C    20.86000061   8.01000023  54.43999863
C    16.67000008   8.09000015  53.59000397
C    16.02000046   7.40000010  54.65000153
C    14.65999985   7.11000013  54.68999863
C    24.61999893   8.10999966  54.02999878
H    24.93933487   8.62093639  54.93833160
H    20.10000038   6.97000027  56.25999832
H    18.76000023   9.17000008  51.95000076
H    21.04000092   9.22000027  51.23000336
H    23.54000092   9.27999973  51.95000076
H    22.69000053   7.44000006  55.61999893
H    14.15999985   6.61999989  55.52000046
H    25.15000153   8.50000000  53.15000153
H    24.84000015   7.04999971  54.23999786
