96

S    16.63999939  12.69999981  58.79000092
C    19.30999947  12.72999954  58.00000000
C    17.98999977  12.53000069  57.64999771
C    17.59000015  11.96000004  56.39999771
C    18.55999947  11.71000004  55.44000244
C    19.90999985  11.97999954  55.75000000
C    20.93000031  11.89000034  54.75999832
C    22.22999954  12.30999947  54.91000366
C    22.53999901  12.97000027  56.12999725
C    21.63999939  13.00000000  57.18000031
C    20.29999924  12.56000042  57.01000214
C    16.13999939  11.82999992  56.40999603
C    15.44000053  12.20999908  57.57999802
C    14.06000042  12.30000019  57.70000076
C    23.94000053  13.50000000  56.31999969
H    24.45308304  12.88715076  57.06112289
H    19.56999969  13.09999943  58.99000168
H    18.25000000  11.31000042  54.47999954
H    20.59999847  11.54999924  53.79000092
H    22.93999863  12.35000038  54.08000183
H    21.86000061  13.45000076  58.13999939
H    13.56999969  12.57999992  58.61999893
H    24.57999992  13.34000015  55.44000244
H    23.80000114  14.55000019  56.63000107
S    12.97000027  11.26999950  53.97999573
C    10.25000000  11.16000080  54.75999832
C    11.56000042  11.46999931  55.02999878
C    11.92000008  11.79999924  56.38000107
C    10.95999908  11.77999973  57.36999893
C     9.59000015  11.59000015  57.05999756
C     8.53999996  11.64999962  58.02000046
C     7.28999996  11.11999989  57.77999878
C     6.97000027  10.73999977  56.45000076
C     7.86999989  10.85999966  55.41999817
C     9.22000027  11.19999981  55.72999954
C    13.34000015  12.07999992  56.51000214
C    14.02999973  11.73999977  55.33000183
C    15.39999962  11.51000023  55.26000214
C     5.63000011  10.15999985  56.05999756
H     5.14625692  10.71488094  55.25613403
H     9.96000004  10.82999992  53.75999832
H    11.33999920  11.94000053  58.36999893
H     8.85999966  11.82000065  59.05000305
H     6.67000008  10.95000076  58.64999771
H     7.64999962  10.70000076  54.36000061
H    15.90999985  11.18999958  54.36000061
H     4.94000006   9.92999935  56.88000107
H     5.88999987   9.18000031  55.63999939
S    17.35999870  13.04999924  52.41000366
C    20.03999901  13.15000057  51.62000275
C    18.78000069  12.64000034  51.43000031
C    18.39999962  12.17000008  50.13000107
C    19.37000084  12.10000038  49.15000153
C    20.72000122  12.43000031  49.41999817
C    21.70000076  12.35999966  48.39000320
C    22.95000076  12.86999893  48.64999771
C    23.40999985  13.15999985  49.95999908
C    22.46999931  13.27000046  50.96000290
C    21.11000061  12.96000004  50.70000076
C    16.95000076  12.13999939  49.94999695
C    16.25000000  12.57999992  51.10000229
C    14.86999989  12.76000023  51.11999893
C    24.86999893  13.36999989  50.31000137
H    25.25369072  12.66656685  51.04896164
H    20.20999908  13.71000099  52.52999878
H    19.11999893  11.69999981  48.16999817
H    21.37000084  12.10000038  47.37999725
H    23.65999985  12.86000061  47.83000183
H    22.78000069  13.52000046  51.97000122
H    14.32000065  13.01000023  52.02000046
H    25.45000076  13.17999935  49.40000153
H    25.06999969  14.40999985  50.56999969
S    13.82999992  11.78999996  47.39999771
C    11.14999962  11.59000015  48.20999908
C    12.41000080  12.10999966  48.40000153
C    12.72999954  12.53999901  49.72999954
C    11.73999977  12.64999962  50.68000031
C    10.39000034  12.28999996  50.47000122
C     9.31999969  12.28000069  51.40999603
C     8.05999947  11.89000034  51.04999924
C     7.77999973  11.30000019  49.78000259
C     8.82999992  11.16000080  48.90999603
C    10.13000011  11.65999985  49.20000076
C    14.18000031  12.56000042  49.92000198
C    14.89999962  12.10999966  48.77999878
C    16.27000046  11.87000084  48.75999832
C     6.43000031  10.81999969  49.33000183
H     5.92521763  11.53096199  48.67591476
H    11.13999939  10.92000008  47.35000229
H    12.13000107  12.88000011  51.66999817
H     9.46000004  12.68000031  52.41000366
H     7.22000027  12.13000107  51.70000076
H     8.67000008  10.72000027  47.91999817
H    16.84999847  11.59000015  47.88999939
H     5.82999992  10.47000027  50.18000031
H     6.61000013   9.92999935  48.70999908
