96

S    16.81999969  12.35999966  58.92000198
C    19.52999878  12.35000038  58.31999969
C    18.27000046  11.90999985  58.01000214
C    17.93000031  11.38000011  56.70999908
C    18.95000076  11.21000099  55.79000092
C    20.28000069  11.59000015  56.07999802
C    21.30000114  11.65999985  55.08999634
C    22.60000038  12.01000023  55.38999939
C    22.88000107  12.61999989  56.63999939
C    21.83000183  12.77999973  57.51999664
C    20.55999947  12.17000008  57.36999893
C    16.48999977  11.26999950  56.56000137
C    15.72999954  11.82000065  57.62000275
C    14.35999966  11.97999954  57.52999878
C    24.27000046  13.15000057  56.88999939
H    24.79704285  12.61583424  57.68056488
H    19.68000031  13.03999996  59.15000153
H    18.81000137  10.92000008  54.75000000
H    21.07999992  11.28000069  54.09999847
H    23.39999962  11.84999943  54.66999817
H    22.04999924  13.30000019  58.46000290
H    13.73999977  12.36999989  58.34000015
H    24.77999878  13.01000023  55.93000031
H    24.15999985  14.22999954  57.04000092
S    13.40000057  10.65999985  53.95000076
C    10.65000057  10.65999985  54.55999756
C    11.95000076  10.95999908  54.92000198
C    12.23000050  11.44000053  56.24000168
C    11.14999962  11.80999947  57.02000046
C     9.81999969  11.46999931  56.70999908
C     8.69999981  11.77999973  57.54000092
C     7.44000006  11.39999962  57.11999893
C     7.14999962  10.64000034  55.96000290
C     8.23000050  10.42000008  55.13000107
C     9.55999947  10.80000019  55.45999908
C    13.67000008  11.50000000  56.40999603
C    14.46000004  10.98000050  55.34000015
C    15.85000038  10.90999985  55.37000275
C     5.73999977  10.19000053  55.63000107
H     5.32718515  10.75939941  54.79725266
H    10.52999973  10.29000092  53.54999924
H    11.39000034  12.31999969  57.95000076
H     8.84000015  12.44999981  58.37999725
H     6.63000011  11.67000008  57.77999878
H     8.10000038  10.01000023  54.13000107
H    16.29999924  10.54999924  54.43999863
H     5.01999950  10.22999954  56.45999908
H     5.82000017   9.13000011  55.34999847
S    13.31999969   8.40999985  51.17000198
C    10.64000034   7.96999979  51.81999969
C    11.97000027   7.88000011  52.18999863
C    12.38999939   7.23999977  53.40000153
C    11.40999985   6.90999985  54.31999969
C    10.03000069   7.11999989  54.06000137
C     9.01000023   6.47000027  54.79999924
C     7.73999977   6.34999990  54.27000046
C     7.30000019   7.13999987  53.18000031
C     8.27000046   7.78999996  52.44999695
C     9.64999962   7.59999990  52.76000214
C    13.83999920   7.22000027  53.53000259
C    14.44000053   7.92999983  52.45999908
C    15.76000023   8.36999989  52.45999908
C     5.88999987   7.20000029  52.63999939
H     5.67684269   6.51079130  51.82289886
H    10.36000061   8.43999958  50.87999725
H    11.76000023   6.21999979  55.07999802
H     9.34000015   5.92999983  55.68000031
H     7.00999975   5.78999996  54.84000397
H     8.02999973   8.42000008  51.59000015
H    16.25000000   8.78000069  51.59000015
H     5.09999990   7.13999987  53.40000153
H     5.78999996   8.23000050  52.29000092
S    17.25000000   6.61000013  55.70000076
C    19.89999962   7.31999969  55.02999878
C    18.53999901   7.48000050  54.85000229
C    18.01000023   8.22000027  53.75000000
C    18.88000107   8.85000038  52.88000107
C    20.28000069   8.73000050  53.04999924
C    21.21999931   9.26000023  52.12999725
C    22.57999802   9.11000061  52.29000092
C    23.05999947   8.53999996  53.50000000
C    22.20000076   7.92000008  54.38000107
C    20.79999924   8.00000000  54.18000031
C    16.56999969   8.06999969  53.56999969
C    16.03000069   7.23999977  54.59000015
C    14.70000076   6.83000040  54.55999756
C    24.56000137   8.55000019  53.69999695
H    24.80979538   8.90684891  54.69917679
H    20.22999954   6.81999969  55.93999863
H    18.56999969   9.32999992  51.95000076
H    20.84000015   9.94999981  51.37000275
H    23.19000053   9.64999962  51.56999969
H    22.60000038   7.42999983  55.26000214
H    14.27000046   6.21000004  55.34000015
H    25.00999832   9.22000027  52.95000076
H    24.89999962   7.50999975  53.61999893
