96

S    16.65999985  12.67000008  58.76999664
C    19.37000084  12.81000042  58.09999847
C    18.12000084  12.31999969  57.81999969
C    17.86000061  11.59999943  56.60999680
C    18.90999985  11.21999931  55.79999924
C    20.23999977  11.67000008  56.02000427
C    21.35999870  11.23999977  55.26000214
C    22.62000084  11.69000053  55.59000015
C    22.79999924  12.61000061  56.65000153
C    21.73000145  12.96000004  57.43000031
C    20.40999985  12.46999931  57.19999695
C    16.42000008  11.52999973  56.40999603
C    15.62999916  12.11999989  57.43000031
C    14.23999977  12.15999985  57.43999863
C    24.18000031  13.17000008  56.91999817
H    24.68049049  12.60515976  57.70648575
H    19.40000153  13.53000069  58.90999603
H    18.71000099  10.54999924  54.97000122
H    21.18000031  10.55999947  54.43000031
H    23.46999931  11.28999901  55.02999878
H    21.90000153  13.55999947  58.33000183
H    13.69999981  12.58999920  58.27999878
H    24.65999985  13.07999992  55.93999863
H    24.13999939  14.26000023  57.08000183
S    13.22999954  10.39000034  54.05000305
C    10.47000027  10.53999996  54.58000183
C    11.76000023  10.90000057  54.89999771
C    12.10000038  11.54000092  56.12999725
C    11.06999969  11.90999985  56.97000122
C     9.73999977  11.49000072  56.72000122
C     8.67000008  11.64999962  57.64999771
C     7.35000038  11.47999954  57.30999756
C     7.14999962  10.69000053  56.14999771
C     8.14999962  10.19000053  55.34000015
C     9.44000053  10.73999977  55.52999878
C    13.53999996  11.63000011  56.35000229
C    14.29999924  11.03000069  55.31000137
C    15.69000053  11.00000000  55.34000015
C     5.73000002  10.21000004  55.93999863
H     5.35170555  10.80956078  55.11203766
H    10.25000000   9.89000034  53.74000168
H    11.31999969  12.20000076  57.98999786
H     8.80999947  12.17000008  58.59000397
H     6.54999971  11.85999966  57.94000244
H     7.96999979   9.61000061  54.43999863
H    16.13000107  10.42000008  54.52999878
H     5.15999985  10.29999924  56.86999893
H     5.78999996   9.15999985  55.65000153
S    13.36999989   8.53999996  50.86000061
C    10.67000008   8.05000019  51.40999603
C    11.98999977   7.86000013  51.73999786
C    12.48000050   7.17000008  52.90000153
C    11.54000092   6.61000013  53.75000000
C    10.18000031   6.84000015  53.43999863
C     9.13999939   6.37000036  54.29000092
C     7.77999973   6.48000002  54.05000305
C     7.35000038   7.32999992  53.00000000
C     8.28999996   7.82999992  52.14000320
C     9.68999958   7.63000011  52.34000397
C    13.89999962   7.36000013  53.15999985
C    14.53999996   8.02999973  52.09000015
C    15.88999939   8.36000061  52.09000015
C     5.92000008   7.79999971  52.81999969
H     5.49295044   7.25195265  51.98013306
H    10.21999931   8.59000015  50.58000183
H    11.87000084   6.14000034  54.66999817
H     9.34000015   5.86000013  55.22999573
H     6.98999977   6.03999996  54.65000153
H     7.96999979   8.39999962  51.27999878
H    16.27000046   9.10000038  51.39999771
H     5.32999992   7.59999990  53.72000122
H     6.11000013   8.85000038  52.57999802
S    17.15999985   7.00000000  55.58000183
C    19.82999992   7.69000006  55.12000275
C    18.52000046   7.69000006  54.68000031
C    18.12999916   8.13000011  53.37999725
C    19.07999992   8.64999962  52.51999664
C    20.43999863   8.63000011  52.88999939
C    21.45000076   8.98999977  51.95000076
C    22.77000046   8.93000031  52.35000229
C    23.16999817   8.30999947  53.55999756
C    22.19000053   7.78999996  54.36999893
C    20.79999924   8.01999950  54.13999939
C    16.69999886   7.92000008  53.15000153
C    16.02000046   7.36999989  54.26000214
C    14.65000057   7.13999987  54.31999969
C    24.63000107   8.05000019  53.85000229
H    24.99792099   8.54527664  54.74857712
H    20.06000137   7.13000011  56.02000427
H    18.85000038   8.76000023  51.45999908
H    21.14999962   9.34000015  50.97000122
H    23.52999878   9.21000004  51.63000107
H    22.52000046   7.23000002  55.24000168
H    14.13000011   6.78999996  55.20999908
H    25.17999840   8.30999947  52.94000244
H    24.73999977   6.97000027  53.97999573
