96

S    16.73999977  12.39999962  59.06000137
C    19.48999977  12.46999931  58.44999695
C    18.20000076  12.15999985  58.08000183
C    17.79999924  11.77999973  56.76000214
C    18.78999901  11.50000000  55.83000183
C    20.13000107  11.72999954  56.22000122
C    21.12999916  11.78999996  55.20000076
C    22.46000099  11.85999966  55.54999924
C    22.86000061  12.32999992  56.83000183
C    21.87000084  12.60000038  57.75000000
C    20.52000046  12.25999928  57.50000000
C    16.36000061  11.84000015  56.56999969
C    15.59000015  12.17000008  57.71999741
C    14.21000004  12.05000019  57.78999710
C    24.27999878  12.75000000  57.11000061
H    24.69126511  12.21819115  57.96798706
H    19.76000023  12.86999893  59.41999817
H    18.51000023  11.42000008  54.78000259
H    20.81999969  11.76000023  54.15999985
H    23.16999817  11.78999996  54.72999954
H    22.01000023  12.98999977  58.75999832
H    13.64999962  12.17000008  58.72000122
H    24.76000023  12.56999969  56.13999939
H    24.31999969  13.82999992  57.29999924
S    13.17999935  10.90000057  54.15000153
C    10.43000031  10.90000057  54.72000122
C    11.72999954  11.16000080  55.13000107
C    12.05000019  11.56999969  56.45999908
C    10.95999908  11.90000057  57.25999832
C     9.63000011  11.54000092  56.93999863
C     8.47000027  11.77000046  57.74000168
C     7.21000004  11.38000011  57.35000229
C     6.98000002  10.62000084  56.17000198
C     8.05000019  10.53999996  55.31000137
C     9.35999966  10.98000050  55.65000153
C    13.48000050  11.68000031  56.65999985
C    14.22999954  11.32999992  55.51000214
C    15.62000084  11.26000023  55.54000092
C     5.59999990  10.15999985  55.77999878
H     5.19600439  10.71992493  54.93656921
H    10.17000008  10.67999935  53.68999863
H    11.09000015  12.23000050  58.29000092
H     8.71999931  12.15999985  58.72000122
H     6.42000008  11.68000031  58.02999878
H     7.86000013  10.18000031  54.29999924
H    16.03000069  10.67999935  54.72000122
H     5.03999996  10.31999969  56.70999908
H     5.55000019   9.07999992  55.56999969
S    17.02999878  12.92000008  52.76000214
C    19.75000000  13.02999973  52.05999756
C    18.45999908  12.69999981  51.72999954
C    18.12000084  12.20000076  50.43000031
C    19.13999939  11.92000008  49.52999878
C    20.48000145  12.25000000  49.80999756
C    21.53000069  12.02999973  48.87000275
C    22.82999992  12.22000027  49.25000000
C    23.11000061  12.93000031  50.45000076
C    22.11999893  13.25000000  51.33999634
C    20.76999855  12.84999943  51.09000397
C    16.67000008  12.15999985  50.30000305
C    15.90999985  12.51999950  51.44000244
C    14.52000046  12.46999931  51.49000168
C    24.54000092  13.30999947  50.76000214
H    24.95214844  12.74862480  51.59850693
H    20.06000137  13.23999977  53.08000183
H    18.79999924  11.52999973  48.57999802
H    21.22999954  11.72999954  47.87000275
H    23.65999985  12.02999973  48.56999969
H    22.34000015  13.76999950  52.27000427
H    14.04999924  12.93000031  52.36000061
H    25.15000153  13.14000034  49.86000061
H    24.54000092  14.37999916  51.00999832
S    13.55000019  11.52999973  47.72999573
C    10.81999969  11.57999992  48.29999924
C    12.10000038  11.85999966  48.69999695
C    12.43000031  12.18000031  50.06000137
C    11.38000011  12.35000038  50.94999695
C    10.05000019  12.15000057  50.52999878
C     8.97000027  12.28999996  51.45000076
C     7.71000004  11.84000015  51.11000061
C     7.44999981  11.19999981  49.86999893
C     8.45000076  11.13000011  48.93000031
C     9.72999954  11.65999985  49.20999908
C    13.86999989  12.13000107  50.31000137
C    14.59000015  11.72999954  49.15000153
C    15.98000050  11.72000027  49.15999985
C     6.07999992  10.64000034  49.55999756
H     5.32681227  11.42160988  49.65947342
H    10.67999935  11.16000080  47.30999756
H    11.59999943  12.36999989  52.01000214
H     9.13999939  12.61000061  52.47000122
H     6.89000034  11.97000027  51.79999924
H     8.18000031  10.90999985  47.90000153
H    16.57999992  11.46000004  48.29999924
H     5.82000017   9.78999996  50.20000076
H     6.06999969  10.36999893  48.48999786
