96

S    16.53000069  11.92000008  58.85000229
C    19.15999985  12.05000019  58.13000107
C    17.90999985  11.61000061  57.77999878
C    17.60000038  11.38000011  56.39999771
C    18.59000015  11.39999962  55.44000244
C    19.89999962  11.78999996  55.81999969
C    20.95000076  11.75000000  54.86999893
C    22.19000053  12.17000008  55.27999878
C    22.46999931  12.67000008  56.58000183
C    21.47999954  12.69000053  57.52999878
C    20.17999840  12.23000050  57.15999985
C    16.14999962  11.39000034  56.29000092
C    15.43000031  11.71000004  57.47000122
C    14.04000092  11.82999992  57.49000168
C    23.85000038  13.19000053  56.90999985
H    24.43269157  12.50071907  57.52111435
H    19.47000122  12.28999996  59.15000153
H    18.38000107  11.07999992  54.41999817
H    20.86999893  11.49000072  53.81000137
H    23.01000214  12.10000038  54.56999969
H    21.65999985  12.96000004  58.56999969
H    13.63999939  12.02999973  58.47000122
H    24.36000061  13.35000038  55.94999695
H    23.90000153  14.18000031  57.37999725
S    13.05999947  10.64000034  53.83999634
C    10.29999924  10.53999996  54.41999817
C    11.57999992  10.86999989  54.79000092
C    11.87000084  11.26000023  56.13999939
C    10.81999969  11.23999977  57.02999878
C     9.46000004  11.09000015  56.65999985
C     8.47000027  11.21000099  57.67000198
C     7.21000004  10.84000015  57.27000427
C     6.89000034  10.59000015  55.90999985
C     7.83999968  10.48999977  54.92000198
C     9.19999981  10.67000008  55.31000137
C    13.30000019  11.40999985  56.38000107
C    14.06999969  11.03000069  55.25000000
C    15.44999981  11.07999992  55.12000275
C     5.46999979  10.17000008  55.59999847
H     4.93013906  10.78799820  54.88255310
H    10.22999954  10.18000031  53.40000153
H    11.10000038  11.21000099  58.08000183
H     8.73000050  11.49000072  58.68999863
H     6.39999962  10.95999908  57.98999786
H     7.63999987  10.14000034  53.90999603
H    15.98000050  10.90999985  54.18000031
H     4.90000010  10.07999992  56.53999710
H     5.60999966   9.19999981  55.11000061
S    16.79999924  12.51000023  52.60000229
C    19.43000031  12.97000027  51.79000092
C    18.20999908  12.39999962  51.52000046
C    17.94999886  11.79999924  50.25000000
C    19.00000000  11.68000031  49.34999847
C    20.29999924  12.15000057  49.62999725
C    21.42999840  12.02000046  48.76999664
C    22.65000153  12.53999901  49.13000107
C    22.79999924  13.27000046  50.33000183
C    21.70999908  13.55000019  51.12999725
C    20.48999977  12.86999893  50.86000061
C    16.53000069  11.51000023  50.13000107
C    15.78999996  11.92999935  51.25999832
C    14.42000008  12.15999985  51.26999664
C    24.20000076  13.68000031  50.73999786
H    24.60399628  13.12007713  51.58342743
H    19.52000046  13.52000046  52.71999741
H    18.79999924  11.25000000  48.36000061
H    21.40000153  11.52999973  47.80000305
H    23.45999908  12.41000080  48.40999985
H    21.83000183  13.97999954  52.11999893
H    13.88000011  12.38000011  52.18999863
H    24.90999985  13.57999992  49.92000198
H    24.20999908  14.75999928  50.91999817
S    13.31999969  11.02000046  47.67000198
C    10.65999985  11.05999947  48.31999969
C    11.92999935  11.42000008  48.68999863
C    12.23000050  11.85999966  50.01999664
C    11.23000050  11.95000076  50.96000290
C     9.89000034  11.63000011  50.63999939
C     8.80000019  11.90999985  51.52000046
C     7.50000000  11.69999981  51.12999725
C     7.18999958  11.23000050  49.82999802
C     8.27000046  10.90000057  49.03999710
C     9.63000011  11.21999931  49.27999878
C    13.68999958  11.89000034  50.11000061
C    14.42000008  11.39999962  49.00000000
C    15.80000019  11.18000031  48.97999573
C     5.77000046  10.84000015  49.47999954
H     5.31361341  11.42474556  48.68132401
H    10.44000053  10.75000000  47.29999924
H    11.57999992  12.35999966  51.90000153
H     9.10000038  12.43999958  52.42000198
H     6.67999983  12.07999992  51.73999786
H     8.01000023  10.38000011  48.11999893
H    16.28999901  11.02000046  48.02999878
H     5.26000023  10.95999908  50.45000076
H     5.59000015   9.77999973  49.27000046
