96

S    16.79000092  12.50000000  58.72000122
C    19.52999878  12.48000050  58.15000153
C    18.25000000  12.23000050  57.72999573
C    17.93000031  11.71000004  56.44000244
C    18.94000053  11.44999981  55.52999878
C    20.27000046  11.84000015  55.81999969
C    21.31999969  11.72999954  54.86000061
C    22.63000107  11.90000057  55.26000214
C    22.92000008  12.32999992  56.58000183
C    21.90000153  12.50000000  57.49000168
C    20.52999878  12.25999928  57.16999817
C    16.48999977  11.52999973  56.26999664
C    15.73999977  12.02000046  57.36999893
C    14.35999966  12.15000057  57.29999924
C    24.30999947  12.79000092  56.97000122
H    24.72365379  12.18378353  57.77590942
H    19.81999969  13.02000046  59.05000305
H    18.64999962  11.00000000  54.59000015
H    21.09000015  11.21999931  53.93000031
H    23.43000031  11.64999962  54.58000183
H    22.13000107  12.89000034  58.47000122
H    13.76999950  12.64000034  58.06999969
H    25.06000137  12.84999943  56.17000198
H    24.27000046  13.78000069  57.44999695
S    13.35999966  10.64000034  53.79000092
C    10.65000057  10.48999977  54.43999863
C    11.92000008  10.85999966  54.80999756
C    12.20000076  11.44000053  56.07999802
C    11.14999962  11.64999962  56.95999908
C     9.81999969  11.26000023  56.63999939
C     8.64999962  11.44999981  57.43000031
C     7.42000008  10.92000008  57.11999893
C     7.22000027  10.27999973  55.86000061
C     8.27999973  10.22999954  54.98000336
C     9.57999992  10.65999985  55.35999680
C    13.63999939  11.61999893  56.22000122
C    14.40000057  11.05000019  55.17000198
C    15.78999996  10.98000050  55.20000076
C     5.82999992   9.94999981  55.38000107
H     5.36734343  10.62619019  54.66110229
H    10.51000023   9.98000050  53.47999954
H    11.36999989  12.10000038  57.91999817
H     8.64000034  11.82999992  58.43999863
H     6.58999968  11.10000038  57.78999710
H     8.18000031   9.84000015  53.96999741
H    16.31999969  10.65000057  54.31000137
H     5.14999962   9.92999935  56.24000168
H     5.98000002   8.93999958  54.98000336
S    17.26000023  12.89999962  52.77000046
C    19.97999954  12.79000092  52.18999863
C    18.70000076  12.42000008  51.84999847
C    18.35000038  11.82999992  50.59999847
C    19.34999847  11.50000000  49.69999695
C    20.69999886  11.69000053  50.06999969
C    21.75000000  11.56999969  49.10999680
C    23.05000114  11.90999985  49.40000153
C    23.34000015  12.51999950  50.65000153
C    22.36000061  12.64999962  51.60999680
C    21.01000023  12.30999947  51.33999634
C    16.90000153  11.76000023  50.41999817
C    16.17000008  12.35999966  51.47999573
C    14.78000069  12.28999996  51.55000305
C    24.71999931  13.07000065  50.93000031
H    25.14800835  12.65625858  51.84308624
H    20.22000122  13.35999966  53.09000015
H    19.17000008  11.21999931  48.67000198
H    21.60000038  11.26999950  48.08000183
H    23.82999802  11.97999954  48.64999771
H    22.43000031  13.17000008  52.56000137
H    14.19000053  12.57999992  52.42000198
H    25.40999985  13.07000065  50.06999969
H    24.48999786  14.13000011  51.05999756
S    13.81000042  10.71000004  48.02000046
C    11.10000038  11.00000000  48.41999817
C    12.36999989  11.23000050  48.90999603
C    12.63000011  11.69999981  50.22999573
C    11.56999969  11.95000076  51.07999802
C    10.22999954  11.80999947  50.65999985
C     9.07999992  12.00000000  51.49000168
C     7.85000038  11.61999893  51.02000427
C     7.69999981  10.93999958  49.79000092
C     8.76999950  10.88000107  48.92000198
C    10.05000019  11.35000038  49.31000137
C    14.06999969  11.78999996  50.45999908
C    14.81999969  11.28000069  49.36999893
C    16.21000099  11.26000023  49.31999969
C     6.32999992  10.40999985  49.40999985
H     5.73799706  11.10185909  48.81086349
H    10.92000008  10.44999981  47.50000000
H    11.72999954  12.51999950  52.00000000
H     9.31999969  12.23000050  52.52999878
H     6.94000006  11.75000000  51.60999680
H     8.60000038  10.39000034  47.95999908
H    16.79999924  10.73999977  48.56999969
H     5.88000011  10.06999969  50.35999680
H     6.46000004   9.47000027  48.86000061
