96

S    16.61000061  12.56000042  58.69999695
C    19.36000061  12.57999992  58.06000137
C    18.05999947  12.28000069  57.70999908
C    17.70000076  11.73999977  56.43000031
C    18.71999931  11.50000000  55.52999878
C    20.06999969  11.84000015  55.81999969
C    21.17000198  11.51000023  54.97000122
C    22.44999886  11.84999943  55.31999969
C    22.73999977  12.67000008  56.44000244
C    21.70999908  12.88000011  57.32999802
C    20.36999893  12.46999931  57.06999969
C    16.27000046  11.52999973  56.25000000
C    15.57000065  12.06999969  57.35000229
C    14.19000053  12.28000069  57.34000397
C    24.13999939  13.15000057  56.77000046
H    24.51756477  12.50172710  57.56074905
H    19.44000053  13.02000046  59.05000305
H    18.45000076  11.03999996  54.59000015
H    21.01000023  11.00000000  54.02999878
H    23.26000023  11.64999962  54.61999893
H    21.76000214  13.17999935  58.36999893
H    13.73999977  12.60000038  58.27999878
H    24.73999977  13.02000046  55.86999893
H    24.09000015  14.19999981  57.08000183
S    13.02999973  10.80999947  53.83999634
C    10.29999924  10.75000000  54.68999863
C    11.61999893  11.13000011  54.86000061
C    12.05000019  11.59999943  56.13999939
C    11.05000019  11.82000065  57.06999969
C     9.68000031  11.50000000  56.88999939
C     8.65999985  11.82999992  57.81999969
C     7.34000015  11.54000092  57.55000305
C     7.03000021  10.80999947  56.38000107
C     7.95000029  10.38000011  55.45999908
C     9.27999973  10.85999966  55.65999985
C    13.50000000  11.71000004  56.26999664
C    14.17000008  11.18000031  55.13999939
C    15.54999924  11.00999928  55.17000198
C     5.60999966  10.40999985  56.06999969
H     5.25314999  11.05946541  55.27065659
H    10.03000069  10.25000000  53.75999832
H    11.39000034  12.31999969  57.97000122
H     8.98999977  12.25999928  58.76999664
H     6.53999996  11.76000023  58.25000000
H     7.76999998   9.92000008  54.48999786
H    16.06999969  10.55999947  54.33000183
H     5.03999996  10.52000046  57.00000000
H     5.59999990   9.36999989  55.70000076
S    17.06999969  12.81999969  52.85999680
C    19.76000023  12.58999920  52.25000000
C    18.45999908  12.30999947  51.88000107
C    18.05999947  11.98999977  50.54999924
C    19.05999947  11.97000027  49.59999847
C    20.40999985  12.18000031  49.97000122
C    21.48999977  12.02999973  49.05000305
C    22.77000046  12.46000099  49.31000137
C    23.12000084  12.93000031  50.61000061
C    22.11000061  13.09000015  51.52999878
C    20.81000137  12.57999992  51.29000092
C    16.61999893  11.97999954  50.31999969
C    16.00000000  12.46000099  51.50000000
C    14.63999939  12.77999973  51.50000000
C    24.51000023  13.35000038  51.02000427
H    24.82984543  12.73163223  51.85870361
H    19.93999863  12.97000027  53.23999786
H    18.89000130  11.77999973  48.54000092
H    21.15999985  11.68000031  48.08000183
H    23.47999954  12.38999939  48.48999786
H    22.27999878  13.69999981  52.41000366
H    14.23999977  13.09999943  52.45999908
H    25.17000008  13.36999989  50.14999771
H    24.47000122  14.42000008  51.26999664
S    13.45999908  11.79999924  47.78999710
C    10.81999969  11.56000042  48.67000198
C    12.11999989  11.92000008  48.94000244
C    12.46999931  12.38999939  50.25000000
C    11.50000000  12.71000004  51.18000031
C    10.14999962  12.39999962  50.90999985
C     9.09000015  12.50000000  51.86000061
C     7.76999998  12.28999996  51.55000305
C     7.51999950  11.65999985  50.30000305
C     8.48999977  11.36999989  49.38000107
C     9.81000042  11.84999943  49.62999725
C    13.93000031  12.41000080  50.35999680
C    14.56999969  12.06999969  49.13999939
C    15.95000076  11.89000034  49.09000015
C     6.11999989  11.18999958  49.97000122
H     5.61405325  11.68882084  49.14338303
H    10.60999966  11.13000011  47.69000244
H    11.69999981  13.01000023  52.19999695
H     9.38000011  12.69999981  52.88999939
H     7.03000021  12.46999931  52.32999802
H     8.43999958  10.77999973  48.47000122
H    16.43000031  11.35000038  48.29000092
H     5.52999973  11.30000019  50.89000320
H     6.15999985  10.11000061  49.79000092
