96

S    16.35000038  11.82999992  59.02999878
C    19.09000015  11.82000065  58.44999695
C    17.79999924  11.54999924  58.04000092
C    17.39999962  11.02000046  56.77000046
C    18.44000053  10.90000057  55.86999893
C    19.78999901  11.17000008  56.20999908
C    20.84000015  11.02000046  55.25000000
C    22.07999992  11.50000000  55.58000183
C    22.46000099  12.02999973  56.84000015
C    21.47000122  12.10000038  57.80000305
C    20.13999939  11.68000031  57.50999832
C    15.97000027  10.90999985  56.56000137
C    15.26999950  11.38000011  57.70999908
C    13.89999962  11.64999962  57.70000076
C    23.88000107  12.38999939  57.18999863
H    24.26930237  11.71756935  57.95444870
H    19.19000053  12.32999992  59.40000153
H    18.17000008  10.40999985  54.93999863
H    20.58000183  10.71000004  54.23999786
H    22.88999939  11.40999985  54.86000061
H    21.61999893  12.48000050  58.80000305
H    13.27000046  11.82999992  58.56999969
H    24.53000069  12.39999962  56.31000137
H    23.84000015  13.38999939  57.63000107
S    12.82999992  10.57000065  54.02999878
C    10.13000011  10.47999954  54.62999725
C    11.39000034  10.88000107  55.00999832
C    11.75000000  11.39000034  56.30000305
C    10.72999954  11.57999992  57.21000290
C     9.39999962  11.25000000  56.84999847
C     8.34999943  11.39000034  57.80000305
C     7.11999989  10.82999992  57.56000137
C     6.80999994  10.17000008  56.33999634
C     7.79999971  10.07999992  55.38999939
C     9.07999992  10.67000008  55.56999969
C    13.19000053  11.43000031  56.51000214
C    13.90999985  10.98000050  55.38000107
C    15.26000023  10.67000008  55.38000107
C     5.40000010   9.78999996  55.93000031
H     4.87402248  10.52921104  55.32583618
H     9.94999981   9.85999966  53.75000000
H    11.02000046  11.61999893  58.26000214
H     8.65999985  11.68000031  58.80000305
H     6.38999987  10.98000050  58.34000015
H     7.55000019   9.57999992  54.45999908
H    15.81999969  10.29000092  54.52000046
H     4.79999971   9.52999973  56.81000137
H     5.55999994   8.80000019  55.48999786
S    16.82999992  12.44999981  53.01000214
C    19.55000114  12.46999931  52.35000229
C    18.26000023  12.13000107  52.01000214
C    17.86999893  11.57999992  50.75000000
C    18.85000038  11.39999962  49.79000092
C    20.19000053  11.79999924  50.00999832
C    21.21000099  11.65999985  49.02999878
C    22.53000069  11.84000015  49.34999847
C    22.82999992  12.31999969  50.65000153
C    21.87000084  12.60000038  51.59999847
C    20.51000214  12.27000046  51.32999802
C    16.43000031  11.68000031  50.52000046
C    15.73999977  12.25000000  51.62000275
C    14.37000084  12.48000050  51.63000107
C    24.23000145  12.79000092  50.96000290
H    24.71377373  12.12836838  51.67854691
H    19.82999992  12.90999985  53.29999924
H    18.52000046  10.85999966  48.89999771
H    20.86999893  11.23000050  48.08000183
H    23.29999924  11.69000053  48.59000397
H    22.06999969  13.14000034  52.51999664
H    13.82999992  12.88000011  52.48000336
H    24.82000160  12.76999950  50.02999878
H    24.21999931  13.81999969  51.32999802
S    13.30999947  11.05000019  48.06000137
C    10.57999992  10.97000027  48.70999908
C    11.85999966  11.36999989  49.02999878
C    12.20999908  12.01000023  50.26000214
C    11.18000031  12.23000050  51.16000366
C     9.85000038  11.84000015  50.90000153
C     8.84000015  11.96000004  51.90000153
C     7.51999950  11.71000004  51.60999680
C     7.18999958  11.13000011  50.35999680
C     8.18000031  10.88000107  49.43000031
C     9.52999973  11.28000069  49.61000061
C    13.63999939  12.10999966  50.48999786
C    14.35999966  11.69000053  49.34000015
C    15.72000027  11.39999962  49.36000061
C     5.78000021  10.69000053  50.04000092
H     5.38913774  11.17324829  49.14456940
H    10.38000011  10.47000027  47.77000046
H    11.39999962  12.64999962  52.14000320
H     9.02000046  12.18000031  52.95000076
H     6.78999996  11.79999924  52.41000366
H     7.90000010  10.31999969  48.54000092
H    16.18999863  11.03999996  48.44999695
H     5.12000036  10.73999977  50.90999985
H     5.75999975   9.63999939  49.73999786
