96

S    16.46000099  12.79999924  58.83999634
C    19.19000053  12.82999992  58.29000092
C    17.92000008  12.46999931  57.88999939
C    17.65999985  12.15000057  56.52000046
C    18.70000076  11.97999954  55.63000107
C    20.03000069  12.23000050  56.04000092
C    21.11999893  12.07999992  55.13000107
C    22.39999962  12.46999931  55.47000122
C    22.62000084  13.15999985  56.69000244
C    21.56999969  13.22000027  57.57999802
C    20.26000023  12.71000004  57.36999893
C    16.21999931  12.00000000  56.35000229
C    15.43000031  12.43000031  57.43999863
C    14.04000092  12.48999977  57.38999939
C    23.98999977  13.66000080  57.06999969
H    24.46524429  13.02161312  57.81478500
H    19.37999916  13.17999935  59.29999924
H    18.51000023  11.75000000  54.58000183
H    20.88000107  11.64000034  54.15999985
H    23.19000053  12.27000046  54.75999832
H    21.68999863  13.83999920  58.47000122
H    13.42000008  12.79000092  58.22999954
H    24.59000015  13.81999969  56.17000198
H    23.95000076  14.70999908  57.37999725
S    13.14000034  11.02000046  53.86000061
C    10.47999954  10.67999935  54.54999924
C    11.71000004  11.14999962  54.91000366
C    11.96000004  11.77000046  56.18000031
C    10.98999977  11.90000057  57.15000153
C     9.65999985  11.61000061  56.77000046
C     8.55000019  11.85999966  57.62000275
C     7.27999973  11.51000023  57.22000122
C     7.09999990  10.65999985  56.09000397
C     8.19000053  10.34999943  55.30000305
C     9.48000050  10.90000057  55.52999878
C    13.38999939  12.05000019  56.23000336
C    14.19999981  11.54000092  55.18000031
C    15.59000015  11.44000053  55.22999573
C     5.71000004  10.19999981  55.70999908
H     5.14670801  10.92728806  55.12531662
H    10.26999950  10.11000061  53.64999771
H    11.28000069  12.22000027  58.15000153
H     8.69999981  12.28000069  58.61000061
H     6.43000031  11.90999985  57.76000214
H     7.99000025   9.86999989  54.34000015
H    16.15999985  11.00999928  54.40999985
H     5.15999985  10.11999989  56.65999985
H     5.77000046   9.21000004  55.25000000
S    13.48000050   9.15999985  51.03000259
C    10.81999969   8.55000019  51.65000153
C    12.15999985   8.38999939  51.93000031
C    12.67000008   7.59000015  53.00000000
C    11.71000004   7.02000046  53.81999969
C    10.34000015   7.03000021  53.47999954
C     9.32999992   6.48999977  54.33000183
C     8.00000000   6.74000025  54.10999680
C     7.51999950   7.53999996  53.04000092
C     8.46000004   7.94000053  52.11000061
C     9.85000038   7.81000042  52.36999893
C    14.11000061   7.72000027  53.18000031
C    14.68999958   8.42000008  52.09000015
C    16.02000046   8.82000065  52.18999863
C     6.06999969   7.92999983  53.04999924
H     5.57121086   7.60222435  52.13792801
H    10.52999973   9.03999996  50.72000122
H    12.10999966   6.44000006  54.65000153
H     9.64999962   6.06999969  55.27999878
H     7.40000010   6.28000021  54.88999939
H     8.14000034   8.53999996  51.25999832
H    16.39999962   9.47000027  51.39999771
H     5.47999954   7.59999990  53.90999603
H     5.95000029   9.02000046  53.06000137
S    17.35000038   7.49000025  55.68000031
C    20.00000000   7.96000004  55.00000000
C    18.67000008   8.14999962  54.69999695
C    18.22000122   8.76999950  53.48999786
C    19.13999939   9.38000011  52.65999603
C    20.51000214   9.27999973  52.97000122
C    21.48999977   9.59999943  51.98999786
C    22.81999969   9.34000015  52.21000290
C    23.28000069   8.57999992  53.31999969
C    22.32999992   8.18000031  54.22999954
C    20.95000076   8.52000046  54.10999680
C    16.80999947   8.48999977  53.29000092
C    16.20000076   7.78999996  54.36999893
C    14.84000015   7.49000025  54.36000061
C    24.70999908   8.23000050  53.66000366
H    24.96607780   8.57143688  54.66297150
H    20.39999962   7.50000000  55.90000153
H    18.76000023   9.63000011  51.66999817
H    21.17000198  10.11000061  51.07999802
H    23.52999878   9.67000008  51.45000076
H    22.57999802   7.55000019  55.07999802
H    14.40000057   7.11999989  55.27999878
H    25.36999893   8.73000050  52.95000076
H    24.79000092   7.13999987  53.54000092
