96

S    16.82999992  12.32999992  58.67000198
C    19.52000046  12.17000008  58.06999969
C    18.22999954  12.00000000  57.62000275
C    17.86000061  11.59999943  56.30000305
C    18.86000061  11.23000050  55.41999817
C    20.20000076  11.39999962  55.84999847
C    21.31999969  11.10000038  55.01999664
C    22.63000107  11.46999931  55.24000168
C    22.89999962  12.15000057  56.45999908
C    21.87000084  12.48000050  57.31999969
C    20.55999947  11.97000027  57.11999893
C    16.40999985  11.46999931  56.18000031
C    15.72999954  11.84000015  57.36999893
C    14.34999943  12.03999996  57.37999725
C    24.34000015  12.51999950  56.72000122
H    24.77351952  11.88748550  57.49465179
H    19.75000000  12.69999981  58.99000168
H    18.68000031  10.77999973  54.45000076
H    21.18000031  10.65999985  54.03999710
H    23.31999969  11.38000011  54.40999985
H    22.09000015  13.04999924  58.22000122
H    13.80000019  12.38999939  58.25000000
H    24.92000198  12.48999977  55.79000092
H    24.34999847  13.52000046  57.16999817
S    13.22000027  10.81999969  53.74000168
C    10.53999996  10.73999977  54.47999954
C    11.82999992  11.09000015  54.79999924
C    12.18000031  11.64999962  56.07999802
C    11.18999958  11.77000046  57.02999878
C     9.85000038  11.36999989  56.79000092
C     8.73999977  11.36000061  57.68000031
C     7.46999979  10.92000008  57.39999771
C     7.17000008  10.54999924  56.06999969
C     8.23000050  10.39999962  55.19000244
C     9.55000019  10.81999969  55.48999786
C    13.63000011  11.72000027  56.22000122
C    14.29999924  11.14999962  55.11000061
C    15.69000053  11.05999947  55.06000137
C     5.73000002  10.32999992  55.65999985
H     5.60890150  10.45822144  54.58436203
H    10.36000061  10.29000092  53.50999832
H    11.36999989  12.07999992  58.06000137
H     8.97000027  11.82000065  58.63999939
H     6.67999983  11.10999966  58.13000107
H     8.10000038  10.11000061  54.15000153
H    16.18000031  10.82999992  54.12000275
H     5.05999994  11.00999928  56.19999695
H     5.33999968   9.35000038  55.94999695
S    17.30999947  12.94000053  52.80000305
C    20.02000046  13.09999943  52.16999817
C    18.77000046  12.63000011  51.83000183
C    18.42000008  12.03999996  50.58000183
C    19.48999977  11.67000008  49.78000259
C    20.79000092  12.15999985  50.01999664
C    21.87000084  11.97999954  49.12000275
C    23.19999886  12.17000008  49.45000076
C    23.40999985  12.86999893  50.66999817
C    22.42000198  13.17999935  51.56999969
C    21.07000160  12.84000015  51.25999832
C    17.00000000  11.75000000  50.44000244
C    16.27000046  12.28000069  51.52999878
C    14.89999962  12.48999977  51.47999573
C    24.82999992  13.27000046  51.00000000
H    25.31374359  12.46613407  51.55487823
H    20.23999977  13.67000008  53.06999969
H    19.37000084  10.97000027  48.95999908
H    21.55999947  11.56999969  48.15999985
H    23.88000107  11.84999943  48.67000198
H    22.67000008  13.68000031  52.50000000
H    14.44000053  13.01000023  52.31999969
H    25.35000038  13.55000019  50.07999802
H    24.92000198  14.19000053  51.59000015
S    13.90999985  10.82999992  47.97999954
C    11.18999958  11.00999928  48.48999786
C    12.46999931  11.38000011  48.85000229
C    12.79999924  12.01000023  50.08999634
C    11.72999954  12.43999958  50.86999893
C    10.39999962  12.10000038  50.56000137
C     9.31999969  12.34000015  51.45999908
C     8.06999969  11.89000034  51.11000061
C     7.76000023  11.28999901  49.85000229
C     8.80999947  10.93000031  49.02999878
C    10.11999989  11.36000061  49.36000061
C    14.22999954  12.01000023  50.34000015
C    14.94999981  11.36000061  49.31000137
C    16.32999992  11.18999958  49.34000015
C     6.35999966  10.77999973  49.59999847
H     5.79161692  11.46205902  48.96767426
H    11.06999969  10.36000061  47.63000107
H    11.92999935  12.81999969  51.86999893
H     9.55000019  12.64999962  52.47000122
H     7.30999994  11.82999992  51.86999893
H     8.64999962  10.32999992  48.13999939
H    16.86000061  10.77999973  48.48999786
H     5.75999975  10.52999973  50.47999954
H     6.48000002   9.80000019  49.12000275
