96

S    16.72000122  12.60000038  58.50999832
C    19.43000031  12.46000099  57.83000183
C    18.12000084  12.13000107  57.54000092
C    17.71000099  11.46999931  56.33999634
C    18.70000076  11.36999989  55.37000275
C    20.00999832  11.87000084  55.54999924
C    21.11000061  11.69000053  54.65999985
C    22.42000198  12.01000023  54.93000031
C    22.78000069  12.58999920  56.17000198
C    21.77999878  12.71999931  57.11000061
C    20.43000031  12.36999989  56.83000183
C    16.27000046  11.38000011  56.17000198
C    15.60999966  11.95000076  57.28000259
C    14.22999954  12.09000015  57.29999924
C    24.20000076  12.97000027  56.52999878
H    24.74835014  12.23649120  57.12107849
H    19.67000008  12.92000008  58.77999878
H    18.30000114  10.98999977  54.43000031
H    20.92000008  11.18999958  53.70999908
H    23.22000122  11.77999973  54.22999954
H    21.94000053  13.03999996  58.13999939
H    13.71999931  12.32999992  58.22999954
H    24.84999847  13.28999996  55.70999908
H    24.11000061  13.90999985  57.09999847
S    12.96000004  10.85999966  53.79000092
C    10.29999924  10.77000046  54.52999878
C    11.59000015  11.05000019  54.91000366
C    11.98999977  11.69000053  56.12999725
C    10.98999977  11.92000008  57.04999924
C     9.63999939  11.63000011  56.73999786
C     8.63000011  11.73999977  57.74000168
C     7.30999994  11.56999969  57.38999939
C     6.93000031  11.10999966  56.10000229
C     7.90999985  10.85000038  55.17000198
C     9.27999973  11.10000038  55.45000076
C    13.43999958  11.76000023  56.18999863
C    14.11999893  11.14999962  55.10000229
C    15.50000000  11.05999947  55.04000092
C     5.45000029  10.95000076  55.83000183
H     5.13042736  11.39029980  54.88548660
H     9.96999931  10.29999924  53.61000061
H    11.21999931  12.35999966  58.02000046
H     8.80999947  12.11999989  58.74000168
H     6.57000017  11.73999977  58.16999817
H     7.59999990  10.50000000  54.19000244
H    16.07999992  10.82999992  54.15000153
H     4.78999996  11.23999977  56.65999985
H     5.19999981   9.88000011  55.79000092
S    13.59000015   8.60000038  50.68999863
C    10.95000076   8.19000053  51.50000000
C    12.28999996   8.10999966  51.79000092
C    12.74000072   7.53000021  53.02999878
C    11.80999947   7.13999987  53.96999741
C    10.43000031   7.11999989  53.64999771
C     9.44000053   6.69000053  54.56999969
C     8.10999966   6.90000010  54.29000092
C     7.67000008   7.60999966  53.15000153
C     8.60000038   7.94000053  52.18999863
C     9.98000050   7.71000004  52.41000366
C    14.19000053   7.57999992  53.09999847
C    14.75999928   8.21000004  51.97000122
C    16.07999992   8.64000034  51.95000076
C     6.21000004   7.90999985  52.87000275
H     5.76975632   7.32774258  52.06052017
H    10.57999992   8.50000000  50.52000046
H    12.20000076   6.76000023  54.91000366
H     9.88000011   6.30999994  55.48999786
H     7.31999969   6.65999985  55.00000000
H     8.19000053   8.45000076  51.31000137
H    16.43000031   9.15000057  51.04999924
H     5.71000004   7.88999987  53.85000229
H     6.03999996   8.94999981  52.57999802
S    17.53999901   7.51999950  55.47999954
C    20.17000008   8.09000015  54.71000290
C    18.82999992   8.21000004  54.47000122
C    18.38000107   8.61999989  53.16999817
C    19.36000061   8.92000008  52.23999786
C    20.75000000   8.76999950  52.43000031
C    21.73000145   9.18000031  51.49000168
C    23.05000114   9.25000000  51.88999939
C    23.45999908   8.94999981  53.22000122
C    22.53000069   8.55000019  54.15000153
C    21.17000198   8.43000031  53.75999832
C    16.95000076   8.43000031  53.02999878
C    16.39000130   7.76000023  54.15000153
C    15.06999969   7.32999992  54.15999985
C    24.82999992   9.32999992  53.74000168
H    25.43037033   8.69389248  54.39040375
H    20.48000145   7.69000006  55.68000031
H    18.96999931   9.19999981  51.25999832
H    21.38999939   9.57999992  50.52999878
H    23.75999832   9.71000004  51.20999908
H    22.93999863   8.34000015  55.13999939
H    14.68999958   6.84000015  55.06000137
H    24.59000015  10.24000072  54.29999924
H    25.36999893   9.64999962  52.84000015
