96

S    16.23999977  12.57999992  59.08000183
C    19.01000023  12.46999931  58.55999756
C    17.71999931  12.18000031  58.18999863
C    17.34000015  11.59999943  56.93000031
C    18.38000107  11.39000034  56.04999924
C    19.72999954  11.72000027  56.33999634
C    20.79999924  11.61999893  55.40999985
C    22.07999992  12.01000023  55.72999954
C    22.37999916  12.61000061  56.97999954
C    21.38999939  12.67000008  57.93000031
C    20.05000114  12.28999996  57.62000275
C    15.90000057  11.56000042  56.72000122
C    15.14999962  12.23000050  57.71999741
C    13.78000069  12.44999981  57.70000076
C    23.71000099  13.23999977  57.31999969
H    24.34161568  12.60128784  57.93741989
H    19.26000023  13.02000046  59.45999908
H    18.04999924  11.07999992  55.06000137
H    20.51000214  11.10999966  54.48999786
H    22.79999924  11.87999916  54.92000198
H    21.65999985  13.00000000  58.93000031
H    13.30999947  12.79999924  58.61999893
H    24.30000114  13.45000076  56.43000031
H    23.64000130  14.21000004  57.81999969
S    12.82999992  10.85999966  54.13999939
C    10.07999992  10.92000008  54.77000427
C    11.39000034  11.19999981  55.12000275
C    11.67000008  11.77999973  56.39999771
C    10.65999985  12.01000023  57.30999756
C     9.36999989  11.51000023  57.01000214
C     8.28999996  11.61000061  57.93000031
C     7.00999975  11.19999981  57.63000107
C     6.67999983  10.77000046  56.31999969
C     7.69000006  10.62000084  55.40000153
C     9.02000046  11.00999928  55.70999908
C    13.09999943  11.97999954  56.56999969
C    13.83999920  11.39999962  55.50000000
C    15.19999981  11.13999939  55.58000183
C     5.23000002  10.52000046  55.94999695
H     4.86667442  11.03293037  55.05949402
H     9.85999966  10.47000027  53.81000137
H    10.80000019  12.48000050  58.29000092
H     8.67999935  11.94000053  58.89999771
H     6.26999950  11.28999901  58.41999817
H     7.53000021  10.34000015  54.36999893
H    15.77000046  10.71000004  54.77000427
H     4.59000015  10.72000027  56.81999969
H     5.14999962   9.43000031  55.81999969
S    17.20000076  12.77999973  52.95000076
C    19.86999893  13.02999973  52.18999863
C    18.59000015  12.61999989  51.86000061
C    18.22999954  12.31999969  50.51000214
C    19.19999886  12.18000031  49.54000092
C    20.53999901  12.46999931  49.87999725
C    21.67000008  12.31999969  49.02999878
C    22.95000076  12.69000053  49.36000061
C    23.22999954  13.07000065  50.70000076
C    22.20000076  13.30999947  51.56999969
C    20.88000107  12.90999985  51.20999908
C    16.77999878  12.15999985  50.43000031
C    16.06999969  12.55000019  51.59999847
C    14.68999958  12.56999969  51.72000122
C    24.64999962  13.30000019  51.17000198
H    25.01864243  12.63360786  51.94982529
H    20.03999901  13.38000107  53.20000076
H    18.86999893  11.77000046  48.57999802
H    21.44000053  11.82000065  48.08000183
H    23.77000046  12.53000069  48.67000198
H    22.43999863  13.73000050  52.55000305
H    14.25000000  12.97000027  52.63000107
H    25.27000046  13.15000057  50.27999878
H    24.72999954  14.37000084  51.40999603
S    13.53000069  11.31999969  48.11000061
C    10.84000015  11.44000053  48.68999863
C    12.13000107  11.65999985  49.13999939
C    12.50000000  12.22000027  50.40000153
C    11.43000031  12.41000080  51.25000000
C    10.11999989  11.97999954  50.93999863
C     9.02000046  12.20999908  51.81000137
C     7.73000002  11.95000076  51.42000198
C     7.42000008  11.39999962  50.14999771
C     8.46000004  11.05000019  49.31999969
C     9.77999973  11.49000072  49.62999725
C    13.94999981  12.25000000  50.58000183
C    14.63000107  11.77999973  49.43000031
C    16.01000023  11.79999924  49.31999969
C     5.98999977  11.00000000  49.82999802
H     5.59833670  11.71211529  49.10364151
H    10.65000057  11.11999989  47.67000198
H    11.57999992  12.82999992  52.23999786
H     9.32999992  12.71000004  52.71999741
H     6.89000034  12.03999996  52.09999847
H     8.27000046  10.52999973  48.39000320
H    16.46999931  11.36999989  48.43000031
H     5.38999987  10.78999996  50.72000122
H     6.12999964  10.06000042  49.27000046
