96

S    17.01000023  12.51000023  58.79000092
C    19.70000076  12.64000034  58.01000214
C    18.39999962  12.30999947  57.70000076
C    18.02000046  11.87000084  56.38999939
C    18.98999977  11.75000000  55.40999985
C    20.35000038  11.94000053  55.73999786
C    21.40000153  11.82999992  54.78000259
C    22.70000076  12.10000038  55.14999771
C    23.03999901  12.67000008  56.39999771
C    22.04999924  12.81000042  57.35000229
C    20.69999886  12.50000000  57.02000046
C    16.56999969  11.90000057  56.29000092
C    15.85999966  12.20000076  57.48000336
C    14.47000027  12.20999908  57.56999969
C    24.43000031  13.21000004  56.63999939
H    24.94220924  12.61242390  57.39408493
H    19.98999977  12.97999954  59.00000000
H    18.73999977  11.54999924  54.36999893
H    21.12999916  11.52999973  53.76999664
H    23.45999908  12.05000019  54.36999893
H    22.29999924  13.02999973  58.37999725
H    13.96999931  12.57999992  58.46000290
H    25.06000137  13.21000004  55.73999786
H    24.34999847  14.27000046  56.90000153
S    13.31999969  10.98999977  54.01000214
C    10.60999966  10.60999966  54.78000259
C    11.89000034  11.03000069  55.06000137
C    12.28999996  11.56999969  56.31999969
C    11.31000042  11.90999985  57.22999954
C     9.98999977  11.43000031  57.00000000
C     8.90999985  11.75000000  57.85999680
C     7.57999992  11.61999893  57.54000092
C     7.21000004  11.00999928  56.31999969
C     8.22000027  10.59000015  55.47999954
C     9.59999943  10.85999966  55.73999786
C    13.73000050  11.77999973  56.46999741
C    14.45000076  11.54000092  55.27000046
C    15.82999992  11.54999924  55.14999771
C     5.77000046  10.67000008  56.00999832
H     5.24995756  11.31827259  55.30473328
H    10.29999924  10.29000092  53.79000092
H    11.44999981  12.44999981  58.15999985
H     9.22000027  12.17000008  58.81999969
H     6.76999998  11.84999943  58.22999954
H     7.96999979  10.11000061  54.54000092
H    16.31999969  11.31000042  54.20999908
H     5.22000027  10.82999992  56.95000076
H     5.69999981   9.59999943  55.79000092
S    17.26000023  13.35000038  52.70000076
C    19.96000099  13.27999973  52.04999924
C    18.68000031  12.86999893  51.73999786
C    18.30000114  12.36999989  50.45999908
C    19.29000092  12.23999977  49.50000000
C    20.63999939  12.57999992  49.75999832
C    21.70999908  12.35000038  48.85000229
C    23.02999878  12.56999969  49.13999939
C    23.34000015  13.17000008  50.38999939
C    22.32999992  13.34000015  51.31000137
C    20.95999908  12.97999954  51.10000229
C    16.86000061  12.23999977  50.34000015
C    16.14999962  12.79000092  51.44000244
C    14.75999928  12.86000061  51.50000000
C    24.72999954  13.60999966  50.76000214
H    25.12115479  12.97704124  51.55653381
H    20.29000092  13.57999992  53.04000092
H    18.97999954  11.85999966  48.53000259
H    21.40000153  11.92000008  47.90000153
H    23.75999832  12.43999958  48.34000015
H    22.53000069  13.80000019  52.27000427
H    14.35999966  12.98999977  52.50000000
H    25.30999947  13.40000057  49.85000229
H    24.59000015  14.67000008  51.02000427
S    13.68000031  11.50000000  47.97000122
C    10.97000027  11.33999920  48.73000336
C    12.25000000  11.76000023  48.99000168
C    12.53999901  12.35999966  50.26000214
C    11.59000015  12.44999981  51.25999832
C    10.26999950  12.03999996  50.98999786
C     9.19000053  12.30000019  51.86999893
C     7.88999987  11.92000008  51.60999680
C     7.64999962  11.16000080  50.43000031
C     8.61999989  11.00999928  49.47000122
C     9.94999981  11.44000053  49.72000122
C    13.99000072  12.48000050  50.38999939
C    14.75000000  11.98999977  49.29999924
C    16.11999893  11.77999973  49.23999786
C     6.19999981  10.80999947  50.13999939
H     5.75689793  11.49609470  49.41817093
H    10.69000053  10.90999985  47.77000046
H    11.90000057  12.94000053  52.18000031
H     9.40999985  12.77999973  52.81999969
H     7.13000011  12.15999985  52.34000397
H     8.47000027  10.64000034  48.46000290
H    16.72000122  11.46000004  48.39000320
H     5.63000011  10.84000015  51.07999802
H     6.19999981   9.77000046  49.79000092
