96

S    16.21000099  11.78999996  58.88000107
C    18.86000061  12.11999989  58.16999817
C    17.65999985  11.52999973  57.88000107
C    17.28999901  10.97000027  56.60999680
C    18.31999969  10.92000008  55.68999863
C    19.59000015  11.51000023  55.90999985
C    20.63999939  11.35000038  54.95999908
C    21.90999985  11.82000065  55.21999741
C    22.15999985  12.41000080  56.47999573
C    21.17000198  12.63000011  57.42000198
C    19.84000015  12.20999908  57.14000320
C    15.85000038  10.88000107  56.43000031
C    15.11999989  11.32999992  57.56000137
C    13.75000000  11.56999969  57.64999771
C    23.57999992  12.86000061  56.73999786
H    24.07129478  12.25478172  57.50186539
H    19.04999924  12.55000019  59.15000153
H    18.07999992  10.34999943  54.79000092
H    20.32999992  10.78999996  54.09000015
H    22.67000008  11.59000015  54.47000122
H    21.38999939  12.93000031  58.43999863
H    13.28999996  11.79999924  58.60000229
H    24.13999939  12.94999981  55.79999924
H    23.44000053  13.89999962  57.05999756
S    12.69999981  10.71000004  53.86000061
C    10.08999920  10.24000072  54.52999878
C    11.30000019  10.73999977  54.94999695
C    11.64000034  11.05999947  56.30000305
C    10.62999916  10.97000027  57.22999954
C     9.30999947  10.62999916  56.83000183
C     8.22000027  10.80999947  57.71999741
C     6.96000004  10.42000008  57.34000397
C     6.69000053   9.98999977  56.02000427
C     7.68000031   9.98999977  55.06999969
C     9.01000023  10.32999992  55.45000076
C    13.07000065  11.31999969  56.45000076
C    13.75000000  11.00999928  55.25000000
C    15.11999989  10.77000046  55.24000168
C     5.28999996   9.61000061  55.56999969
H     4.89833689  10.33635616  54.85788345
H     9.84000015   9.88000011  53.53000259
H    10.80999947  11.23999977  58.27000046
H     8.53999996  11.09000015  58.72000122
H     6.19999981  10.39999962  58.11999893
H     7.57000017   9.80000019  54.01000214
H    15.70000076  10.70000076  54.33000183
H     4.67999983   9.70000076  56.46999741
H     5.38000011   8.55000019  55.28999710
S    13.64999962   8.42000008  51.09000397
C    11.00000000   7.88000011  51.93000031
C    12.35000038   7.76999998  52.11999893
C    12.86000061   7.11000013  53.27999878
C    12.05999947   6.63000011  54.31000137
C    10.67000008   6.67000008  54.03999710
C     9.77000046   5.91000032  54.85000229
C     8.43999958   5.78000021  54.54999924
C     7.86999989   6.56000042  53.50999832
C     8.71000004   7.25000000  52.65999603
C    10.11000061   7.30000019  52.88000107
C    14.27000046   7.42999983  53.46000290
C    14.85000038   8.11999989  52.36999893
C    16.20000076   8.45000076  52.27000427
C     6.38000011   6.76999998  53.34999847
H     6.03833055   6.33579540  52.41040802
H    10.42000008   8.36999989  51.14999771
H    12.38000011   5.98999977  55.13000107
H    10.22999954   5.31000042  55.63999939
H     7.90000010   5.10999966  55.20999908
H     8.30999947   7.64999962  51.72999954
H    16.54000092   8.78999996  51.29000092
H     5.86999989   6.21999979  54.13999939
H     6.12999964   7.83999968  53.40999985
S    17.65999985   6.90000010  55.59999847
C    20.36999893   7.49000025  54.87999725
C    19.01000023   7.59999990  54.68999863
C    18.48999977   8.22000027  53.50000000
C    19.37000084   8.85000038  52.63000107
C    20.76999855   8.75000000  52.78999710
C    21.64999962   9.28999996  51.79999924
C    22.96999931   9.44999981  52.14000320
C    23.45000076   8.86999989  53.34999847
C    22.65000153   8.09000015  54.13999939
C    21.25000000   7.95000029  53.88999939
C    17.05000114   8.13000011  53.33000183
C    16.45000076   7.46000004  54.43000031
C    15.10000038   7.17999983  54.55999756
C    24.87999916   9.13999939  53.75999832
H    25.26552963   8.76874828  54.70954514
H    20.69999886   7.14999962  55.86000061
H    19.01000023   9.48999977  51.84000015
H    21.21000099   9.77000046  50.93000031
H    23.57999992  10.01999950  51.45999908
H    23.00000000   7.92999983  55.15999603
H    14.73000050   6.70000029  55.45999908
H    24.86999893  10.22999954  53.88999939
H    25.63999939   8.98999977  52.97999954
