96

S    16.64999962  12.30000019  58.80000305
C    19.40999985  12.22000027  58.20000076
C    18.11000061  11.90000057  57.88000107
C    17.84000015  11.31999969  56.59999847
C    18.81999969  11.23999977  55.63000107
C    20.15999985  11.54999924  55.94999695
C    21.25999832  11.46999931  55.04000092
C    22.56000137  11.75000000  55.38000107
C    22.79000092  12.35000038  56.65000153
C    21.77000046  12.50000000  57.56000137
C    20.46999931  12.01000023  57.28000259
C    16.39999962  11.23999977  56.40999603
C    15.60999966  11.68000031  57.50000000
C    14.25000000  11.96000004  57.49000168
C    24.15999985  12.96000004  56.86999893
H    24.74343491  12.30541325  57.51747131
H    19.63000107  12.72999954  59.13000107
H    18.64999962  10.90999985  54.61000061
H    21.04000092  11.11999989  54.02999878
H    23.35000038  11.67000008  54.65000153
H    21.81999969  13.01000023  58.52000427
H    13.75000000  12.53000069  58.27000046
H    24.63000107  13.07000065  55.87999725
H    23.97999954  13.96999931  57.27000427
S    13.17999935  10.65000057  53.93000031
C    10.46000004  10.39999962  54.68000031
C    11.73999977  10.82999992  54.94999695
C    12.06999969  11.30000019  56.25999832
C    11.05999947  11.59999943  57.15999985
C     9.72000027  11.23999977  56.86999893
C     8.61999989  11.46999931  57.74000168
C     7.36999989  11.13000011  57.28000259
C     7.03999996  10.51000023  56.04000092
C     8.09000015  10.24000072  55.20000076
C     9.39999962  10.65999985  55.59000015
C    13.50999928  11.47999954  56.39999771
C    14.26000023  11.02000046  55.28999710
C    15.64000034  10.97000027  55.26000214
C     5.59000015  10.17000008  55.77999878
H     5.10401630  10.84180069  55.07246399
H    10.21999931   9.89000034  53.75000000
H    11.23000050  12.15000057  58.08000183
H     8.78000069  12.09000015  58.61999893
H     6.51000023  11.35000038  57.90000153
H     7.92000008   9.82999992  54.20999908
H    16.15999985  10.59999943  54.38000107
H     5.12000036  10.14000034  56.77000046
H     5.61999989   9.11999989  55.45000076
S    13.66000080   8.56999969  50.81999969
C    11.03999996   7.81000042  51.27999878
C    12.34000015   7.79999971  51.72000122
C    12.74000072   7.27999973  52.98999786
C    11.76000023   6.88000011  53.88000107
C    10.39000034   6.93000031  53.52000427
C     9.35000038   6.61999989  54.43999863
C     8.05000019   6.74000025  54.02000046
C     7.72000027   7.17999983  52.70999908
C     8.69999981   7.55000019  51.81000137
C    10.06000042   7.30000019  52.16999817
C    14.19000053   7.42000008  53.15000153
C    14.80000019   8.19000053  52.12999725
C    16.11999893   8.63000011  52.11999893
C     6.28999996   7.50999975  52.36000061
H     5.72873402   6.66454887  51.96213913
H    10.88999939   8.50000000  50.45000076
H    12.02000046   6.61000013  54.89999771
H     9.53999996   6.28000021  55.45999908
H     7.30999994   6.60000038  54.79999924
H     8.47999954   7.94000053  50.81999969
H    16.50000000   9.39000034  51.43000031
H     5.84000015   7.95000029  53.26000214
H     6.30999994   8.34000015  51.63999939
S    17.48999977   6.91999960  55.45000076
C    20.13000107   7.42999983  54.73999786
C    18.78999901   7.60999966  54.47000122
C    18.37000084   8.28999996  53.27999878
C    19.29000092   8.89999962  52.44999695
C    20.68000031   8.73000050  52.70000076
C    21.68000031   9.36999989  51.90999985
C    23.01000214   9.28999996  52.23999786
C    23.39999962   8.56000042  53.40000153
C    22.46999931   7.95000029  54.20999908
C    21.07999992   8.05999947  53.89999771
C    16.93000031   8.17000008  53.16999817
C    16.31999969   7.42000008  54.20999908
C    15.00000000   7.00000000  54.20000076
C    24.86999893   8.57999992  53.75000000
H    25.23209763   9.44619560  54.30379486
H    20.43000031   6.88000011  55.63000107
H    18.97999954   9.47000027  51.58000183
H    21.44000053  10.19999981  51.25000000
H    23.71999931   9.73999977  51.56000137
H    22.82999992   7.30000019  55.00000000
H    14.44000053   6.52999973  55.00999832
H    25.50000000   8.25000000  52.91999817
H    25.00000000   7.68000031  54.38000107
