96

S    17.20999908  12.94000053  58.74000168
C    19.93000031  13.00000000  58.06000137
C    18.63000107  12.71999931  57.70000076
C    18.29000092  12.10000038  56.45999908
C    19.27000046  11.64999962  55.59999847
C    20.61000061  12.05999947  55.84999847
C    21.68999863  11.87999916  54.93999863
C    22.98999977  12.02999973  55.37000275
C    23.29999924  12.64000034  56.60999680
C    22.26000023  13.09000015  57.38999939
C    20.93000031  12.65999985  57.11000061
C    16.86000061  11.82999992  56.35000229
C    16.14999962  12.18999958  57.52999878
C    14.75999928  12.20000076  57.61000061
C    24.69000053  12.97000027  57.11000061
H    25.02379799  12.29530334  57.89833069
H    20.17000008  13.36999989  59.05000305
H    19.13999939  11.18999958  54.61999893
H    21.48999977  11.64000034  53.89999771
H    23.62999916  12.10000038  54.48999786
H    22.44999886  13.69999981  58.27000046
H    14.32999992  12.69999981  58.47000122
H    25.46999931  13.17000008  56.37000275
H    24.60000038  13.94000053  57.62000275
S    13.66000080  11.11999989  53.94000244
C    10.95999908  10.82999992  54.64000320
C    12.22000027  11.26999950  54.95999908
C    12.61000061  11.75000000  56.25999832
C    11.56000042  12.00000000  57.12999725
C    10.22999954  11.64999962  56.81999969
C     9.13000011  11.94000053  57.69000244
C     7.86000013  11.44999981  57.50999832
C     7.57999992  10.76000023  56.30000305
C     8.59000015  10.52000046  55.38999939
C     9.92999935  10.93000031  55.61000061
C    14.04000092  11.82999992  56.46999741
C    14.75000000  11.40999985  55.31000137
C    16.13999939  11.32999992  55.26000214
C     6.17999983  10.26000023  56.04000092
H     5.70214844  10.98747635  55.38384628
H    10.75000000  10.26999950  53.73000336
H    11.85999966  12.46000099  58.06999969
H     9.32999992  12.43000031  58.63999939
H     7.14999962  11.54000092  58.31999969
H     8.36000061  10.31999969  54.34999847
H    16.70999908  11.11999989  54.36999893
H     5.65999985  10.15999985  57.00000000
H     6.15000010   9.30999947  55.50000000
S    13.78000069   8.78000069  50.89000320
C    11.09000015   8.23000050  51.59000015
C    12.43000031   8.17000008  51.86999893
C    12.89999962   7.68000031  53.13999939
C    11.94000053   7.17999983  54.01000214
C    10.54999924   7.18999958  53.75000000
C     9.64999962   6.76999998  54.77000427
C     8.30999947   6.90000010  54.45999908
C     7.82999992   7.40999985  53.22999954
C     8.71000004   7.86999989  52.28000259
C    10.11999989   7.73000002  52.49000168
C    14.34000015   7.81000042  53.29999924
C    14.93999958   8.42000008  52.18000031
C    16.26000023   8.86999989  52.12999725
C     6.34000015   7.62000036  53.04000092
H     5.91411066   7.30058336  52.08884811
H    10.70000076   8.80000019  50.75000000
H    12.23000050   6.57000017  54.86000061
H    10.00000000   6.34999990  55.70999908
H     7.69000006   6.65000010  55.31999969
H     8.42000008   8.43999958  51.40999603
H    16.76000023   9.48999977  51.39999771
H     5.79999971   7.18999958  53.88999939
H     6.32999992   8.71000004  53.20000076
S    17.59000015   7.37999964  55.63000107
C    20.26000023   7.78999996  54.99000168
C    18.94000053   7.97999954  54.65000153
C    18.50000000   8.64000034  53.46000290
C    19.47000122   9.15000057  52.61000061
C    20.84000015   9.06999969  52.95999908
C    21.80999947   9.57999992  52.04999924
C    23.11000061   9.30000019  52.37999725
C    23.57000160   8.56999969  53.50999832
C    22.63000107   8.13000011  54.40999985
C    21.25000000   8.32999992  54.13000107
C    17.05999947   8.52999973  53.22000122
C    16.48999977   7.79999971  54.29999924
C    15.15999985   7.39000034  54.36000061
C    25.03000069   8.26000023  53.75999832
H    25.51161575   8.75577927  54.60282135
H    20.62999916   7.28999996  55.87999725
H    19.29999924   9.59000015  51.63000107
H    21.56999969  10.06000042  51.11000061
H    23.88999939   9.44000053  51.63999939
H    22.93999863   7.51999950  55.25000000
H    14.73000050   6.70000029  55.06999969
H    25.51000214   8.47000027  52.80000305
H    25.13000107   7.17999983  53.88999939
