96

S    16.84000015  12.68000031  58.75000000
C    19.51000023  12.74000072  58.09999847
C    18.25000000  12.31999969  57.75000000
C    17.95999908  11.59000015  56.55000305
C    18.97999954  11.51999950  55.63000107
C    20.29000092  11.97999954  55.90000153
C    21.40000153  11.69999981  55.05000305
C    22.70999908  11.87000084  55.44000244
C    23.00000000  12.56000042  56.65000153
C    21.94000053  12.89999962  57.45999908
C    20.58000183  12.55000019  57.18999863
C    16.52000046  11.42000008  56.40999603
C    15.80000019  11.98999977  57.49000168
C    14.44000053  12.28999996  57.39999771
C    24.40000153  13.01000023  56.95999908
H    24.89366150  12.30170441  57.62537003
H    19.79999924  13.10999966  59.08000183
H    18.85000038  10.97000027  54.69999695
H    21.18000031  11.33999920  54.05000305
H    23.46999931  11.42000008  54.79999924
H    22.11000061  13.38000107  58.41999817
H    13.93000031  12.77999973  58.22999954
H    24.94999886  13.05999947  56.00999832
H    24.36000061  14.04000092  57.34000397
S    13.35999966  10.80999947  53.90999603
C    10.65000057  10.92000008  54.61000061
C    11.94000053  11.35000038  54.81999969
C    12.30000019  12.05000019  56.02000427
C    11.36999989  12.34000015  57.00000000
C    10.03000069  11.94000053  56.77999878
C     9.09000015  11.97999954  57.84999847
C     7.77999973  11.63000011  57.63000107
C     7.39000034  11.13000011  56.36000061
C     8.27999973  11.00999928  55.31999969
C     9.64999962  11.35000038  55.52000046
C    13.73999977  12.05000019  56.20999908
C    14.46000004  11.46999931  55.13999939
C    15.81999969  11.18000031  55.21999741
C     6.05999994  10.40999985  56.24000168
H     5.49267673  10.94895744  55.48120880
H    10.44999981  10.32999992  53.72000122
H    11.77999973  12.61999989  57.97000122
H     9.39999962  12.32999992  58.82999802
H     7.20000029  11.42000008  58.53000259
H     7.96999979  10.47999954  54.43000031
H    16.34000015  10.92000008  54.31000137
H     5.51999998  10.46000004  57.18999863
H     6.24000025   9.35999966  55.98999786
S    13.68000031   8.69000053  50.84999847
C    10.98000050   8.23999977  51.40999603
C    12.30000019   8.05000019  51.77000046
C    12.77999973   7.59000015  53.02999878
C    11.80999947   7.09000015  53.87000275
C    10.44000053   7.30999994  53.57999802
C     9.46000004   7.07000017  54.59000015
C     8.11999989   7.26000023  54.36000061
C     7.60999966   7.64999962  53.09000015
C     8.56999969   8.05000019  52.18999863
C     9.98000050   7.94000053  52.36999893
C    14.21000004   7.69999981  53.29000092
C    14.80000019   8.36000061  52.18999863
C    16.14999962   8.71999931  52.22000122
C     6.12999964   7.57999992  52.77999878
H     5.77424622   6.76176596  52.15387344
H    10.80000019   8.85999966  50.54000092
H    12.02000046   6.65999985  54.85000229
H     9.73999977   6.71999979  55.58000183
H     7.40000010   6.96000004  55.12000275
H     8.26000023   8.32999992  51.18999863
H    16.61000061   9.18000031  51.36000061
H     5.63000011   7.64999962  53.75000000
H     5.98999977   8.50000000  52.21000290
S    17.43999863   7.16000032  55.70000076
C    20.06999969   7.73999977  55.13000107
C    18.76000023   7.83999968  54.72999954
C    18.37000084   8.47000027  53.50999832
C    19.34999847   8.92000008  52.64999771
C    20.69999886   8.88000011  53.08000183
C    21.65999985   9.31999969  52.11999893
C    22.98000145   9.25000000  52.50000000
C    23.40999985   8.63000011  53.69999695
C    22.50000000   8.10999966  54.58000183
C    21.11000061   8.19999981  54.27999878
C    16.93000031   8.36000061  53.33000183
C    16.31999969   7.75000000  54.45999908
C    14.96999931   7.40999985  54.43000031
C    24.79999924   8.06999969  53.89999771
H    25.38988304   8.58170700  54.66045380
H    20.20999908   7.49000025  56.18000031
H    18.98999977   9.17000008  51.65999985
H    21.35000038   9.72999954  51.16000366
H    23.71000099   9.61999989  51.79000092
H    22.72999954   7.53000021  55.47000122
H    14.63999939   6.89000034  55.33000183
H    25.29999924   8.26000023  52.94000244
H    24.68000031   7.00000000  54.09000015
