96

S    17.13000107  12.34000015  58.93000031
C    19.78999901  12.71999931  58.11999893
C    18.53999901  12.22000027  57.85999680
C    18.20999908  11.51999950  56.65000153
C    19.23999977  11.43000031  55.72999954
C    20.56999969  11.84000015  55.98999786
C    21.65999985  11.44999981  55.15999603
C    22.95999908  11.54999924  55.59999847
C    23.26999855  12.23000050  56.79999924
C    22.21999931  12.69000053  57.56000137
C    20.85000038  12.57999992  57.18999863
C    16.77999878  11.33999920  56.46999741
C    16.07999992  11.82999992  57.60000229
C    14.72000027  12.13000107  57.54000092
C    24.72999954  12.48999977  57.12999725
H    25.20012474  11.87741184  57.89929581
H    19.88000107  13.07000065  59.15000153
H    19.17000008  10.81999969  54.84000397
H    21.37000084  11.17000008  54.15000153
H    23.69999886  11.00999928  55.00000000
H    22.34000015  13.09999943  58.55999756
H    14.26000023  12.61999989  58.39000320
H    25.32999992  12.38000011  56.22000122
H    24.82000160  13.53999996  57.43999863
S    13.76000023  11.07999992  53.80000305
C    11.03999996  11.03999996  54.47000122
C    12.31999969  11.44000053  54.77000427
C    12.68000031  12.00000000  56.04000092
C    11.64999962  12.07999992  56.97000122
C    10.29999924  11.80999947  56.65000153
C     9.26000023  12.05999947  57.57999802
C     7.99000025  11.61999893  57.29000092
C     7.63000011  11.05999947  56.03000259
C     8.60999966  10.90999985  55.06999969
C     9.94999981  11.28999901  55.34999847
C    14.11000061  11.92999935  56.29000092
C    14.81999969  11.36999989  55.20000076
C    16.13999939  10.95000076  55.27999878
C     6.19000006  10.62999916  55.90000153
H     5.67175722  11.15534210  55.09779358
H    10.93999958  10.55999947  53.50999832
H    11.87000084  12.20000076  58.02999878
H     9.53999996  12.32999992  58.60000229
H     7.30000019  11.57999992  58.13000107
H     8.27999973  10.43000031  54.15999985
H    16.72999954  10.77999973  54.38000107
H     5.68000031  10.86999989  56.84000015
H     6.23000050   9.53999996  55.83000183
S    17.07999992  13.27999973  52.70000076
C    19.80999947  12.94999981  52.23999786
C    18.52000046  12.67000008  51.86000061
C    18.20999908  12.20000076  50.54000092
C    19.22999954  12.05000019  49.62999725
C    20.58000183  12.15999985  50.02999878
C    21.60000038  12.18000031  49.03999710
C    22.92000008  12.44999981  49.34000015
C    23.25000000  12.84000015  50.65999985
C    22.23999977  12.97000027  51.59000015
C    20.88000107  12.61999989  51.36000061
C    16.77000046  12.13000107  50.28999710
C    16.06999969  12.81000042  51.31999969
C    14.68999958  12.96000004  51.25999832
C    24.61000061  13.42000008  50.97999954
H    25.20528793  12.70423889  51.54693985
H    20.06999969  13.40000057  53.18999863
H    19.02000046  11.98999977  48.55999756
H    21.27000046  12.01000023  48.02000046
H    23.72999954  12.39999962  48.61999893
H    22.40999985  13.40999985  52.56999969
H    14.11999893  13.27000046  52.12999725
H    25.03000069  13.71999931  50.01999664
H    24.48999786  14.37000084  51.52000046
S    13.60999966  10.97000027  48.01000214
C    10.85999966  11.16000080  48.57999802
C    12.15999985  11.39000034  48.95000076
C    12.53999901  12.09000015  50.13999939
C    11.52999973  12.30999947  51.05999756
C    10.21999931  11.82000065  50.84999847
C     9.22000027  11.98999977  51.84000015
C     7.88999987  11.77000046  51.52999878
C     7.53000021  11.31999969  50.22999573
C     8.47000027  11.09000015  49.25000000
C     9.84000015  11.31999969  49.55999756
C    13.96999931  12.36999989  50.21999741
C    14.70000076  11.72999954  49.18000031
C    16.09000015  11.61999893  49.18000031
C     6.06999969  10.98999977  50.00999832
H     5.59964228  11.65990257  49.29021072
H    10.70000076  10.78999996  47.56999969
H    11.76000023  12.75000000  52.02000046
H     9.59999943  12.48000050  52.72999573
H     7.13999987  12.00000000  52.28000259
H     8.11999989  10.69000053  48.29999924
H    16.67000008  11.16000080  48.39000320
H     5.63000011  11.00999928  51.02000427
H     6.01999998   9.94000053  49.69999695
