96

S    16.29999924  12.88000011  58.76999664
C    19.04000092  12.81000042  58.06999969
C    17.71999931  12.55000019  57.76000214
C    17.32999992  11.95000076  56.52000046
C    18.27000046  11.64000034  55.56000137
C    19.63000107  11.87000084  55.86999893
C    20.65999985  11.56999969  54.93999863
C    21.97999954  11.84999943  55.21999741
C    22.37999916  12.48000050  56.43000031
C    21.38999939  12.84000015  57.31999969
C    20.02000046  12.55000019  57.08000183
C    15.88999939  11.87999916  56.33999634
C    15.19999981  12.31999969  57.50000000
C    13.81000042  12.28000069  57.54000092
C    23.80000114  12.93000031  56.66999817
H    24.26136971  12.51121807  57.56434631
H    19.29000092  13.30999947  59.00000000
H    17.97000122  11.35000038  54.55999756
H    20.42000008  11.21000099  53.94000244
H    22.75000000  11.54999924  54.52000046
H    21.68000031  13.43999958  58.16999817
H    13.30999947  12.74000072  58.37999725
H    24.30000114  12.44999981  55.81999969
H    24.04000092  14.00000000  56.76000214
S    12.71000004  11.03999996  53.90999603
C     9.98999977  10.86999989  54.62999725
C    11.28000069  11.23000050  54.93999863
C    11.69999981  11.64000034  56.25000000
C    10.67999935  11.84000015  57.15999985
C     9.34000015  11.44000053  56.93999863
C     8.27000046  11.65999985  57.85999680
C     6.98999977  11.40999985  57.43999863
C     6.65999985  10.77999973  56.20999908
C     7.68000031  10.47999954  55.33000183
C     9.00000000  10.88000107  55.65999985
C    13.12999916  11.84999943  56.38999939
C    13.81999969  11.40999985  55.22999573
C    15.21000004  11.43000031  55.20000076
C     5.23000002  10.60999966  55.75000000
H     4.85243368  11.25827312  54.95925140
H     9.72999954  10.59999943  53.61000061
H    10.78999996  12.28000069  58.13999939
H     8.45000076  12.36999989  58.67000198
H     6.24000025  11.92999935  58.02999878
H     7.57999992  10.14000034  54.29999924
H    15.67999935  11.05999947  54.29000092
H     4.53999996  10.67999935  56.59999847
H     5.07000017   9.59000015  55.38000107
S    13.35999966   9.02000046  50.91999817
C    10.69000053   8.55000019  51.65000153
C    12.02999973   8.45000076  51.95000076
C    12.50000000   7.90999985  53.18999863
C    11.59999943   7.34000015  54.06999969
C    10.22999954   7.37999964  53.75000000
C     9.32999992   6.77999973  54.66999817
C     7.97999954   6.91999960  54.40000153
C     7.46000004   7.53999996  53.23999786
C     8.32999992   8.11999989  52.34000397
C     9.73999977   8.00000000  52.54000092
C    13.94000053   8.10000038  53.36999893
C    14.48999977   8.80000019  52.27000427
C    15.86999989   8.97999954  52.18000031
C     5.95000029   7.62000036  53.13999939
H     5.62938404   7.56300163  52.09978104
H    10.34000015   9.15000057  50.80999756
H    11.87000084   6.61000013  54.82999802
H     9.67000008   6.30999994  55.59000015
H     7.32999992   6.61000013  55.20999908
H     7.94000053   8.80000019  51.59999847
H    16.18999863   9.32999992  51.20999908
H     5.52999973   6.83000040  53.76999664
H     5.59999990   8.55000019  53.61000061
S    17.14999962   7.62000036  55.65999985
C    19.86999893   8.00000000  55.06999969
C    18.54999924   8.13000011  54.68999863
C    18.13999939   8.61999989  53.40999985
C    19.13999939   8.97999954  52.52999878
C    20.51000214   8.82999992  52.84999847
C    21.54999924   9.30999947  52.00000000
C    22.86000061   9.06999969  52.31999969
C    23.25000000   8.52999973  53.57999802
C    22.26000023   8.27999973  54.51000214
C    20.88999939   8.38000011  54.16999817
C    16.69000053   8.64999962  53.26000214
C    16.01000023   8.10000038  54.38000107
C    14.68000031   7.69999981  54.48999786
C    24.70000076   8.11999989  53.70999908
H    24.98354149   8.31138992  54.74492645
H    20.07999802   7.75000000  56.11000061
H    18.85000038   9.52999973  51.63999939
H    21.30000114   9.78999996  51.04999924
H    23.54999924   9.13999939  51.49000168
H    22.52000046   7.88000011  55.47999954
H    14.29999924   6.98999977  55.20999908
H    25.25000000   8.73000050  52.97999954
H    24.70000076   7.05999947  53.46000290
