96

S    16.57999992  11.77000046  58.97999573
C    19.17000008  12.10999966  58.13999939
C    17.89999962  11.71000004  57.80000305
C    17.53999901  11.26999950  56.49000168
C    18.54999924  11.25000000  55.54999924
C    19.88999939  11.57999992  55.87999725
C    20.93000031  11.51999950  54.91000366
C    22.20999908  11.79999924  55.33000183
C    22.52000046  12.38999939  56.58000183
C    21.55999947  12.38000011  57.56000137
C    20.22000122  12.05000019  57.19999695
C    16.09000015  11.33999920  56.36000061
C    15.47000027  11.44999981  57.63000107
C    14.09000015  11.59999943  57.68000031
C    23.97000122  12.71000004  56.90000153
H    24.43975639  12.06230736  57.64022064
H    19.40000153  12.38000011  59.16999817
H    18.38999939  11.23999977  54.47000122
H    20.62000084  11.26999950  53.89999771
H    22.98999977  11.59000015  54.61000061
H    21.67000008  12.69000053  58.60000229
H    13.52000046  11.61999893  58.61000061
H    24.56999969  12.56000042  56.00000000
H    24.09000015  13.76000023  57.21000290
S    12.84000015  11.30000019  53.93000031
C    10.21000004  10.76000023  54.66999817
C    11.46000004  11.18000031  55.04000092
C    11.82999992  11.47999954  56.38999939
C    10.81999969  11.49000072  57.32999802
C     9.51000023  11.06999969  56.97999954
C     8.55000019  10.98000050  58.02999878
C     7.28999996  10.52000046  57.74000168
C     6.94000006  10.08999920  56.44000244
C     7.88999987  10.08999920  55.44000244
C     9.19000053  10.60999966  55.65000153
C    13.27000046  11.54000092  56.55000305
C    13.94999981  11.46999931  55.30000305
C    15.32999992  11.32999992  55.18000031
C     5.53999996   9.59999943  56.12999725
H     4.97934055  10.29550171  55.50546646
H     9.98000050  10.65000057  53.61000061
H    11.07999992  11.72999954  58.36000061
H     8.92000008  11.33999920  58.97999573
H     6.57999992  10.48999977  58.56999969
H     7.63999987   9.59999943  54.50000000
H    15.80999947  11.00999928  54.26000214
H     5.00000000   9.59000015  57.08000183
H     5.61999989   8.57999992  55.73999786
S    16.62999916  12.94000053  52.77000046
C    19.37999916  12.93000031  52.14000320
C    18.07999992  12.63000011  51.79000092
C    17.71000099  12.10999966  50.51000214
C    18.75000000  11.94000053  49.61000061
C    20.10999870  12.10000038  49.94999695
C    21.18000031  11.84000015  49.05000305
C    22.46999931  12.17000008  49.38000107
C    22.78000069  12.67000008  50.66999817
C    21.80000114  12.84999943  51.60999680
C    20.43999863  12.58999920  51.26999664
C    16.27000046  11.98999977  50.33000183
C    15.53999996  12.41000080  51.47999573
C    14.17000008  12.64999962  51.45999908
C    24.18999863  13.20000076  50.84000015
H    24.77369499  12.61630344  51.55182648
H    19.60000038  13.40999985  53.09000015
H    18.53999901  11.82000065  48.54999924
H    21.02999878  11.47999954  48.02999878
H    23.26999855  12.00000000  48.66000366
H    22.09000015  13.40000057  52.50000000
H    13.66000080  13.10999966  52.29999924
H    24.70000076  13.22999954  49.86999893
H    24.11000061  14.25000000  51.14999771
S    13.10999966  11.16000080  47.88999939
C    10.36999893  11.39999962  48.47000122
C    11.68000031  11.61000061  48.82999802
C    12.00000000  12.03999996  50.15999603
C    10.95000076  12.35000038  51.00999832
C     9.63999939  11.87000084  50.76000214
C     8.56999969  12.01000023  51.68000031
C     7.30999994  11.61000061  51.29000092
C     7.00999975  11.09000015  50.00000000
C     8.03999996  10.92000008  49.10999680
C     9.34000015  11.38000011  49.43999863
C    13.43999958  12.13000107  50.38999939
C    14.13000011  11.61000061  49.27000046
C    15.52000046  11.56999969  49.22999954
C     5.65999985  10.55999947  49.54999924
H     5.17393303  11.26050854  48.87093735
H    10.11000061  10.95999908  47.50999832
H    11.32999992  12.77999973  51.93999863
H     8.73000050  12.50000000  52.63999939
H     6.60000038  11.65999985  52.11000061
H     7.85000038  10.36999893  48.18999863
H    16.13000107  11.31999969  48.36000061
H     5.03999996  10.57999992  50.45000076
H     5.71000004   9.57999992  49.06000137
