96

S    16.84999847  12.61999989  58.68999863
C    19.50000000  12.50000000  58.08000183
C    18.23999977  12.06999969  57.74000168
C    17.86999893  11.56000042  56.45000076
C    18.93000031  11.25000000  55.61999893
C    20.20000076  11.82999992  55.84000015
C    21.27000046  11.64999962  54.92000198
C    22.56999969  11.90000057  55.28999710
C    22.79999924  12.64999962  56.47999573
C    21.80999947  12.96000004  57.38999939
C    20.52000046  12.44999981  57.09000015
C    16.42000008  11.56999969  56.27999878
C    15.75000000  12.23000050  57.35000229
C    14.40000057  12.56999969  57.41000366
C    24.17000008  13.14000034  56.86999893
H    24.60297775  12.47278786  57.61528778
H    19.70000076  13.03999996  59.00000000
H    18.79999924  10.77999973  54.64000320
H    21.07999992  11.09000015  54.00000000
H    23.32999992  11.92000008  54.51000214
H    22.01999855  13.55999947  58.27000046
H    13.93000031  12.94000053  58.30999756
H    24.73999977  13.21000004  55.93999863
H    24.13999939  14.15999985  57.27000427
S    13.15000057  11.05000019  53.93000031
C    10.50000000  10.90999985  54.72000122
C    11.77999973  11.35000038  55.00000000
C    12.20000076  11.96000004  56.23000336
C    11.23999977  12.05999947  57.22000122
C     9.92000008  11.59999943  57.00000000
C     8.86999989  11.69999981  57.97000122
C     7.59000015  11.28000069  57.71999741
C     7.25000000  10.80000019  56.43000031
C     8.19000053  10.65999985  55.44000244
C     9.51000023  11.13000011  55.70999908
C    13.64999962  12.13000107  56.31999969
C    14.27999973  11.50000000  55.21999741
C    15.64000034  11.21999931  55.18000031
C     5.82000017  10.43000031  56.09000397
H     5.37612534  11.07433414  55.33111572
H    10.24000072  10.43000031  53.79000092
H    11.49000072  12.30999947  58.25000000
H     8.97999954  12.20999908  58.92000198
H     6.76000023  11.28000069  58.41999817
H     8.01999950  10.26999950  54.43999863
H    16.13999939  10.97000027  54.23999786
H     5.19000006  10.43000031  56.98999786
H     5.86000013   9.38000011  55.76000214
S    17.28999901  12.77999973  52.70999908
C    20.00999832  12.96000004  52.08000183
C    18.71999931  12.65999985  51.68000031
C    18.38999939  12.15999985  50.38000107
C    19.42000008  12.10000038  49.45999908
C    20.76000023  12.35000038  49.85000229
C    21.83000183  12.22000027  48.92000198
C    23.15999985  12.43000031  49.20999908
C    23.45000076  12.96000004  50.48999786
C    22.43999863  13.15999985  51.39999771
C    21.09000015  12.76000023  51.18999863
C    16.95000076  12.01000023  50.24000168
C    16.18999863  12.43000031  51.36000061
C    14.80000019  12.43999958  51.43000031
C    24.86000061  13.35000038  50.86000061
H    25.27179718  12.62580299  51.56289673
H    20.15000153  13.35000038  53.08000183
H    19.17000008  11.87000084  48.41999817
H    21.61999893  11.73999977  47.97000122
H    23.88999939  12.03999996  48.50000000
H    22.63000107  13.71000099  52.31999969
H    14.34999943  12.84000015  52.32999802
H    25.53999901  13.30000019  50.00000000
H    24.89000130  14.30999947  51.38000107
S    13.73000050  11.54000092  47.71999741
C    10.97000027  11.61999893  48.41999817
C    12.30000019  11.82999992  48.73000336
C    12.65999985  12.25000000  50.05000305
C    11.67000008  12.31999969  51.00999832
C    10.29999924  12.10999966  50.72999954
C     9.30999947  12.18000031  51.73999786
C     8.00000000  11.84999943  51.47999573
C     7.69000006  11.49000072  50.13999939
C     8.56999969  11.47999954  49.08000183
C     9.94000053  11.73999977  49.38999939
C    14.11000061  12.27000046  50.21999741
C    14.82999992  11.89000034  49.06000137
C    16.21000099  11.73999977  49.08000183
C     6.24000025  11.10999966  49.95999908
H     5.77032614  11.68641853  49.16297531
H    10.67999935  11.18999958  47.47000122
H    11.87000084  12.43000031  52.08000183
H     9.68999958  12.50000000  52.70000076
H     7.22000027  12.03999996  52.22000122
H     8.18000031  11.05999947  48.15999985
H    16.77000046  11.39000034  48.20999908
H     5.82999992  11.30000019  50.96000290
H     6.09000015  10.05000019  49.68999863
