96

S    16.60000038  12.56000042  58.50000000
C    19.27999878  12.76999950  57.93000031
C    18.04999924  12.35000038  57.50000000
C    17.75000000  11.72000027  56.25000000
C    18.82999992  11.44999981  55.41999817
C    20.12000084  11.92000008  55.75000000
C    21.17000198  11.51999950  54.87999725
C    22.43000031  11.92999935  55.24000168
C    22.63999939  12.64999962  56.45000076
C    21.67000008  12.93000031  57.36999893
C    20.36000061  12.46999931  57.05999756
C    16.31999969  11.52999973  56.11000061
C    15.53999996  11.97000027  57.21000290
C    14.14999962  12.03999996  57.19999695
C    24.04000092  13.15000057  56.77000046
H    24.52548218  12.65737915  57.61245728
H    19.44000053  13.30999947  58.86000061
H    18.72999954  10.82999992  54.54000092
H    20.89999962  10.90000057  54.02000046
H    23.28000069  11.82000065  54.56999969
H    21.83000183  13.50999928  58.27999878
H    13.57999992  12.48999977  58.00000000
H    24.77999878  13.02999973  55.97000122
H    23.95000076  14.22000027  56.98999786
S    13.19000053  10.31999969  53.75000000
C    10.39000034  10.22999954  54.41999817
C    11.69000053  10.59000015  54.66999817
C    12.05999947  11.23999977  55.89000320
C    11.09000015  11.47999954  56.84000015
C     9.72000027  11.36999989  56.49000168
C     8.69000053  11.64999962  57.43999863
C     7.37999964  11.33999920  57.18000031
C     7.00000000  10.65999985  55.98999786
C     7.99000025  10.36000061  55.07999802
C     9.35999966  10.69000053  55.27999878
C    13.48000050  11.49000072  56.10000229
C    14.25000000  10.95999908  55.02999878
C    15.62999916  11.03000069  54.99000168
C     5.59999990  10.13000011  55.79999924
H     4.96863890  10.68332767  55.10479355
H    10.14999962   9.67000008  53.52000427
H    11.40999985  11.84000015  57.81000137
H     9.03999996  12.05000019  58.39000320
H     6.72999954  11.44000053  58.04000092
H     7.82999992   9.71000004  54.22999954
H    16.10999870  10.65999985  54.09000015
H     5.17000008  10.40999985  56.77000046
H     5.72000027   9.06000042  55.61999893
S    13.75000000   8.38999939  50.77999878
C    11.10999966   7.57000017  51.36000061
C    12.46000099   7.50000000  51.59999847
C    12.96000004   6.85999966  52.77999878
C    12.07999992   6.30000019  53.68999863
C    10.69000053   6.54999971  53.54999924
C     9.76000023   6.03999996  54.48999786
C     8.40999985   6.24000025  54.31999969
C     7.88999987   6.86999989  53.15999985
C     8.76999950   7.30000019  52.18999863
C    10.18000031   7.17999983  52.36000061
C    14.34000015   7.23000002  53.04999924
C    14.93999958   8.01999950  52.04000092
C    16.28000069   8.38000011  51.95999908
C     6.43000031   7.02000046  52.81000137
H     6.03165817   6.19486380  52.21960068
H    10.76000023   8.09000015  50.47000122
H    12.35000038   5.82999992  54.62999725
H    10.08999920   5.32000017  55.24000168
H     7.67000008   5.75000000  54.94999695
H     8.34999943   7.63999987  51.25000000
H    16.69000053   8.76999950  51.03000259
H     5.92999983   7.30000019  53.75000000
H     6.28000021   7.95000029  52.25000000
S    17.73999977   6.71000004  55.20000076
C    20.46999931   7.42999983  54.59000015
C    19.11999893   7.40000010  54.33000183
C    18.57999992   7.97999954  53.13000107
C    19.44000053   8.56999969  52.22000122
C    20.81999969   8.64999962  52.50999832
C    21.64999962   9.39999962  51.63999939
C    22.95999908   9.63000011  51.97999954
C    23.54000092   9.06000042  53.15000153
C    22.73999977   8.34999943  54.01000214
C    21.35000038   8.18000031  53.76999664
C    17.13000107   7.99000025  53.00000000
C    16.51000023   7.27999973  54.06000137
C    15.19999981   6.84000015  54.09000015
C    24.97999954   9.31999969  53.54000092
H    25.25021744   8.86489582  54.49287033
H    20.86000061   7.05999947  55.52999878
H    19.12999916   9.19000053  51.38000107
H    21.21999931   9.80000019  50.72000122
H    23.52999878  10.14999962  51.22000122
H    23.12000084   7.75000000  54.82999802
H    14.84000015   6.24000025  54.93000031
H    25.13000107  10.39000034  53.72000122
H    25.75000000   8.97000027  52.84999847
