96

S    16.92000008  12.79000092  58.95999908
C    19.61000061  12.68000031  58.25000000
C    18.30000114  12.42000008  57.90999985
C    17.97999954  11.90000057  56.60999680
C    18.94000053  11.72000027  55.63999939
C    20.29999924  11.97000027  55.93000031
C    21.35999870  11.82000065  54.99000168
C    22.65000153  12.10999966  55.35999680
C    22.93000031  12.84999943  56.53999710
C    21.87999916  13.05999947  57.41000366
C    20.59000015  12.48999977  57.25000000
C    16.53000069  11.77000046  56.52999878
C    15.82999992  12.15999985  57.70999908
C    14.44000053  12.18000031  57.74000168
C    24.31999969  13.22999954  56.97000122
H    24.61131477  12.46973801  57.69473267
H    19.89999962  13.04999924  59.22999954
H    18.57999992  11.26999950  54.72000122
H    21.18000031  11.40999985  54.00000000
H    23.40999985  11.76000023  54.65999985
H    22.11999893  13.64999962  58.29000092
H    13.92000008  12.32999992  58.68000031
H    24.89999962  13.28999996  56.04000092
H    24.31999969  14.18000031  57.51999664
S    13.36999989  11.11999989  54.05000305
C    10.67000008  11.00999928  54.75999832
C    11.97000027  11.28999901  55.12000275
C    12.32999992  11.71000004  56.44000244
C    11.31999969  11.90999985  57.35000229
C     9.98000050  11.59000015  57.02000046
C     8.89000034  11.73999977  57.93000031
C     7.60999966  11.42000008  57.56000137
C     7.28999996  10.93000031  56.26999664
C     8.28999996  10.80000019  55.33000183
C     9.61999989  11.16000080  55.70000076
C    13.78000069  11.78999996  56.56999969
C    14.48999977  11.51000023  55.37000275
C    15.86999989  11.33999920  55.38000107
C     5.92000008  10.40999985  55.90999985
H     5.43589687  11.10055923  55.21944046
H    10.52999973  10.53999996  53.77999878
H    11.64999962  12.23000050  58.33000183
H     9.06999969  12.06999969  58.95000076
H     6.84000015  11.54999924  58.30999756
H     8.17000008  10.47999954  54.29999924
H    16.40999985  10.95000076  54.52000046
H     5.26000023  10.39999962  56.79999924
H     5.84999990   9.35000038  55.65000153
S    13.32999992   9.43000031  50.93000031
C    10.62000084   8.76999950  51.44000244
C    11.95000076   8.67000008  51.75000000
C    12.35000038   7.92000008  52.90000153
C    11.42000008   7.22000027  53.66000366
C    10.03000069   7.30999994  53.40000153
C     9.06999969   6.72999954  54.27000046
C     7.73999977   6.96000004  54.02000046
C     7.39000034   7.86000013  52.97000122
C     8.28999996   8.43000031  52.11000061
C     9.67000008   8.10999966  52.25999832
C    13.78999901   7.96999979  53.13000107
C    14.44000053   8.69000053  52.09000015
C    15.81999969   8.89999962  52.09999847
C     5.92000008   8.14999962  52.84000015
H     5.43675089   7.75913668  51.94456863
H    10.34999943   9.40999985  50.59999847
H    11.73999977   6.54999971  54.45000076
H     9.35000038   6.30000019  55.22999573
H     7.04999971   6.60000038  54.78000259
H     7.99000025   9.23999977  51.45000076
H    16.28999901   9.55999947  51.38000107
H     5.42999983   7.73000002  53.72000122
H     5.75000000   9.23999977  52.81000137
S    17.06999969   7.05999947  55.38000107
C    19.77000046   7.55999994  54.77000427
C    18.44000053   7.85000038  54.59000015
C    17.98999977   8.63000011  53.47000122
C    18.94000053   9.11000061  52.57999802
C    20.31999969   8.92000008  52.85999680
C    21.31000137   9.51000023  52.02000046
C    22.65000153   9.22000027  52.16999817
C    23.11000061   8.51000023  53.30999756
C    22.18000031   7.92000008  54.13000107
C    20.78000069   8.13000011  53.96999741
C    16.56999969   8.47999954  53.20000076
C    15.93000031   7.64999962  54.15999985
C    14.56999969   7.36000013  54.12000275
C    24.54999924   8.07999992  53.44999695
H    24.99949455   8.41533852  54.38466263
H    20.03000069   7.02000046  55.68999863
H    18.63000107   9.78999996  51.79999924
H    20.97999954  10.05000019  51.12999725
H    23.34000015   9.50000000  51.38000107
H    22.46999931   7.22000027  54.92000198
H    14.06999969   6.84000015  54.93000031
H    25.06999969   8.56000042  52.61000061
H    24.65999985   6.98999977  53.40999985
