96

S    16.79000092  12.50000000  58.72000122
C    19.52999878  12.48000050  58.15000153
C    18.25000000  12.23000050  57.72999573
C    17.93000031  11.71000004  56.44000244
C    18.94000053  11.44999981  55.52999878
C    20.27000046  11.84000015  55.81999969
C    21.31999969  11.72999954  54.86000061
C    22.63000107  11.90000057  55.26000214
C    22.92000008  12.32999992  56.58000183
C    21.90000153  12.50000000  57.49000168
C    20.52999878  12.25999928  57.16999817
C    16.48999977  11.52999973  56.26999664
C    15.73999977  12.02000046  57.36999893
C    14.35999966  12.15000057  57.29999924
C    24.30999947  12.79000092  56.97000122
H    24.72365379  12.18378353  57.77590942
H    19.81999969  13.02000046  59.05000305
H    18.64999962  11.00000000  54.59000015
H    21.09000015  11.21999931  53.93000031
H    23.43000031  11.64999962  54.58000183
H    22.13000107  12.89000034  58.47000122
H    13.76999950  12.64000034  58.06999969
H    25.06000137  12.84999943  56.17000198
H    24.27000046  13.78000069  57.44999695
S    13.35999966  10.64000034  53.79000092
C    10.65000057  10.48999977  54.43999863
C    11.92000008  10.85999966  54.80999756
C    12.20000076  11.44000053  56.07999802
C    11.14999962  11.64999962  56.95999908
C     9.81999969  11.26000023  56.63999939
C     8.64999962  11.44999981  57.43000031
C     7.42000008  10.92000008  57.11999893
C     7.22000027  10.27999973  55.86000061
C     8.27999973  10.22999954  54.98000336
C     9.57999992  10.65999985  55.35999680
C    13.63999939  11.61999893  56.22000122
C    14.40000057  11.05000019  55.17000198
C    15.78999996  10.98000050  55.20000076
C     5.82999992   9.94999981  55.38000107
H     5.36734343  10.62619019  54.66110229
H    10.51000023   9.98000050  53.47999954
H    11.36999989  12.10000038  57.91999817
H     8.64000034  11.82999992  58.43999863
H     6.58999968  11.10000038  57.78999710
H     8.18000031   9.84000015  53.96999741
H    16.31999969  10.65000057  54.31000137
H     5.14999962   9.92999935  56.24000168
H     5.98000002   8.93999958  54.98000336
S    13.94999981   8.43000031  51.18999863
C    11.25000000   8.09000015  51.76000214
C    12.55000019   7.83999968  52.11000061
C    12.90999985   7.23000002  53.34999847
C    11.92999935   6.54999971  54.03999710
C    10.57999992   6.70000029  53.62999725
C     9.55000019   6.11000013  54.41999817
C     8.21000004   6.28000021  54.13000107
C     7.86999989   7.00000000  52.95999908
C     8.82000065   7.60999966  52.16999817
C    10.19999981   7.42999983  52.45999908
C    14.32999992   7.40000010  53.64999771
C    14.98999977   8.09000015  52.60000229
C    16.34000015   8.38999939  52.58999634
C     6.40999985   7.34000015  52.77999878
H     6.01913691   6.85675097  51.88456726
H    11.10000038   8.76999950  50.91999817
H    12.20999908   5.96000004  54.91000366
H     9.80000019   5.68000031  55.38000107
H     7.44000006   6.17999983  54.88999939
H     8.50000000   8.30000019  51.38999939
H    16.79000092   8.69999981  51.65999985
H     5.78000021   7.05999947  53.63999939
H     6.34000015   8.42000008  52.63999939
S    17.64000130   6.76999998  55.96000290
C    20.35000038   7.26999998  55.24000168
C    19.00000000   7.32999992  54.95999908
C    18.53000069   7.96000004  53.76999664
C    19.42000008   8.56000042  52.90000153
C    20.79999924   8.59000015  53.20000076
C    21.75000000   9.02999973  52.22999954
C    23.09000015   9.10000038  52.49000168
C    23.52000046   8.50000000  53.69999695
C    22.67000008   7.92999983  54.62999725
C    21.27000046   7.96999979  54.40999985
C    17.06999969   7.96000004  53.70999908
C    16.42000008   7.26999998  54.77000427
C    15.06999969   6.94000006  54.73999786
C    24.99000168   8.67999935  54.00000000
H    25.41035652   8.17414951  54.86920547
H    20.66999817   6.90999985  56.20999908
H    19.05999947   9.11000061  52.02999878
H    21.35999870   9.51000023  51.32999802
H    23.77000046   9.68000031  51.86000061
H    23.05999947   7.49000025  55.54999924
H    14.60999966   6.28000021  55.45999908
H    25.10999870   9.77000046  54.05000305
H    25.59999847   8.42000008  53.13000107
