96

S    16.35000038  12.50000000  58.74000168
C    18.93000031  12.82999992  57.87000275
C    17.72999954  12.20000076  57.65999603
C    17.40999985  11.51000023  56.44000244
C    18.39999962  11.40999985  55.47999954
C    19.67000008  12.01000023  55.63999939
C    20.73999786  11.80999947  54.72999954
C    22.04999924  12.13999939  54.98000336
C    22.29000092  12.79999924  56.22000122
C    21.25999832  13.15000057  57.05999756
C    19.90999985  12.74000072  56.86000061
C    15.98000050  11.28000069  56.39999771
C    15.27999973  11.75000000  57.54000092
C    13.89000034  11.87999916  57.58999634
C    23.67000198  13.19000053  56.70000076
H    24.00961876  12.46831036  57.44291687
H    19.19999886  13.32999992  58.80000305
H    18.38000107  10.65000057  54.69999695
H    20.56999969  11.25000000  53.81000137
H    22.82999992  12.00000000  54.22999954
H    21.54999924  13.52000046  58.04000092
H    13.40999985  12.36999989  58.43000031
H    24.23999977  13.14000034  55.76000214
H    23.59999847  14.17000008  57.18999863
S    12.64999962  10.65999985  54.03999710
C     9.96999931  10.55999947  54.86000061
C    11.26000023  10.98000050  55.08999634
C    11.63000011  11.61000061  56.31999969
C    10.69000053  11.71000004  57.32999802
C     9.34000015  11.39000034  57.04000092
C     8.36999989  11.39999962  58.08000183
C     7.07999992  11.00000000  57.81000137
C     6.69000053  10.44999981  56.56000137
C     7.59000015  10.44000053  55.52000046
C     8.93000031  10.85000038  55.77000046
C    13.07999992  11.56999969  56.49000168
C    13.76999950  11.14999962  55.31999969
C    15.15999985  11.02000046  55.30000305
C     5.23000002  10.11999989  56.32999802
H     4.77517700  10.84487343  55.65487289
H     9.64999962  10.10000038  53.93000031
H    11.05000019  11.97000027  58.31999969
H     8.55000019  11.77000046  59.08000183
H     6.32999992  11.14999962  58.57999802
H     7.23999977   9.90999985  54.64000320
H    15.70000076  10.88000107  54.36999893
H     4.63000011  10.01999950  57.23999786
H     5.09999990   9.13000011  55.87999725
S    13.50999928   8.59000015  51.22000122
C    10.85999966   7.88000011  51.88999939
C    12.20000076   7.90000010  52.19999695
C    12.72999954   7.28999996  53.37999725
C    11.79999924   6.89000034  54.31000137
C    10.39999962   7.00999975  54.13000107
C     9.55000019   6.63000011  55.20999908
C     8.21000004   6.58999968  54.87999725
C     7.65999985   6.97000027  53.61999893
C     8.50000000   7.46000004  52.64999771
C     9.89999962   7.49000025  52.87000275
C    14.18000031   7.40999985  53.50000000
C    14.73000050   8.13000011  52.42000198
C    16.09000015   8.43000031  52.35000229
C     6.25999975   6.56000042  53.22999954
H     5.84914255   7.07003021  52.35869980
H    10.54999924   8.19000053  50.90000153
H    12.11999989   6.51999998  55.28999710
H    10.01000023   6.11000013  56.04000092
H     7.76000023   5.84999990  55.52999878
H     8.05000019   7.72000027  51.70000076
H    16.53000069   8.97000027  51.51000214
H     6.30000019   5.46999979  53.15999985
H     5.59000015   6.69000053  54.09000015
S    17.60000038   6.98000002  55.72999954
C    20.22999954   7.68000031  54.98000336
C    18.86999893   7.69000006  54.72000122
C    18.38999939   8.30999947  53.52000427
C    19.17000008   8.85999966  52.52999878
C    20.55999947   8.89999962  52.81999969
C    21.48999977   9.63000011  52.02000046
C    22.80999947   9.84000015  52.32999802
C    23.29000092   9.28999996  53.54999924
C    22.43999863   8.52000046  54.31000137
C    21.04999924   8.38999939  54.06999969
C    16.95000076   8.14000034  53.40999985
C    16.38000107   7.44999981  54.52000046
C    15.03999901   7.09999990  54.56999969
C    24.65999985   9.78999996  53.95999908
H    25.12393379   9.14049149  54.70229340
H    20.53999901   7.30999994  55.94999695
H    18.78000069   9.36999989  51.65000153
H    21.02999878  10.13000011  51.17000198
H    23.38999939  10.59999943  51.81999969
H    22.81999969   8.11999989  55.25000000
H    14.65999985   6.70000029  55.50000000
H    24.60000038  10.80000019  54.38000107
H    25.30999947   9.85000038  53.08000183
