96

S    16.87999916  12.41000080  58.85000229
C    19.54000092  12.55000019  58.09999847
C    18.29000092  12.05000019  57.83000183
C    17.95999908  11.51999950  56.53999710
C    19.00000000  11.23999977  55.66999817
C    20.28000069  11.80999947  55.84999847
C    21.31000137  11.65999985  54.87999725
C    22.57999802  12.07999992  55.20000076
C    22.80999947  12.84999943  56.36000061
C    21.84000015  13.02000046  57.30999756
C    20.52999878  12.48999977  57.09000015
C    16.52000046  11.56000042  56.31999969
C    15.85000038  12.15000057  57.42000198
C    14.46000004  12.17000008  57.47000122
C    24.20000076  13.23999977  56.83000183
H    24.61949539  12.45789051  57.46279526
H    19.76000023  13.21000004  58.94000244
H    18.78999901  10.60999966  54.80999756
H    21.14999962  10.97000027  54.06000137
H    23.46999931  11.85999966  54.61000061
H    22.09000015  13.38999939  58.29999924
H    13.93000031  12.53999901  58.34000015
H    24.71999931  13.35000038  55.86999893
H    24.06999969  14.22000027  57.29999924
S    13.42000008  10.81999969  53.85000229
C    10.69000053  10.72000027  54.54000092
C    11.98999977  11.05999947  54.86999893
C    12.30999947  11.63000011  56.13999939
C    11.30000019  11.85999966  57.05999756
C     9.94999981  11.56999969  56.76000214
C     8.82999992  11.56000042  57.63999939
C     7.57999992  11.11999989  57.29999924
C     7.30000019  10.52000046  56.04000092
C     8.36000061  10.52000046  55.17000198
C     9.65999985  11.03999996  55.45000076
C    13.75000000  11.77999973  56.32999802
C    14.46000004  11.33999920  55.19000244
C    15.82999992  11.10999966  55.19000244
C     5.91000032  10.10000038  55.63999939
H     5.38249445  10.86987305  55.07685471
H    10.40999985  10.15999985  53.64999771
H    11.54000092  12.13999939  58.08000183
H     9.17000008  11.76000023  58.66000366
H     6.80000019  11.28999901  58.04000092
H     8.30000019   9.94000053  54.25000000
H    16.35000038  10.75000000  54.31000137
H     5.31000042   9.85000038  56.52999878
H     6.01000023   9.18000031  55.06000137
S    17.20999908  13.15000057  52.67000198
C    19.89999962  12.93000031  52.04000092
C    18.60000038  12.64000034  51.70000076
C    18.20999908  12.18000031  50.40000153
C    19.23999977  11.95000076  49.50000000
C    20.59999847  12.15000057  49.82999802
C    21.59000015  12.02999973  48.81000137
C    22.89999962  12.30999947  49.10999680
C    23.23999786  12.81000042  50.38999939
C    22.29000092  13.10999966  51.33999634
C    20.94000053  12.74000072  51.10000229
C    16.77999878  12.31999969  50.15999603
C    16.11999893  12.82999992  51.31000137
C    14.73000050  12.84999943  51.37000275
C    24.67000008  13.09999943  50.79999924
H    25.14632416  12.33930206  51.41851044
H    20.12000084  13.50999928  52.93000031
H    19.00000000  11.64999962  48.48999786
H    21.38999939  11.77000046  47.77999878
H    23.64000130  12.11999989  48.33000183
H    22.56999969  13.63000011  52.25000000
H    14.28999996  12.89000034  52.36000061
H    25.22000122  13.35000038  49.88999939
H    24.68000031  14.02999973  51.38000107
S    13.48000050  11.46000004  47.88000107
C    10.82999992  11.32999992  48.66000366
C    12.10000038  11.77999973  48.95000076
C    12.46000099  12.28000069  50.24000168
C    11.50000000  12.36999989  51.24000168
C    10.18000031  11.92000008  51.02000427
C     9.11000061  12.09000015  51.93999863
C     7.82999992  11.72999954  51.59000015
C     7.55000019  11.10000038  50.34999847
C     8.56999969  10.93000031  49.43999863
C     9.89999962  11.33999920  49.72999954
C    13.89999962  12.48999977  50.30000305
C    14.57999992  12.03999996  49.15000153
C    15.97000027  11.97000027  49.08000183
C     6.15999985  10.70000076  49.89999771
H     5.66279173  11.41029739  49.23942184
H    10.50000000  10.92000008  47.70000076
H    11.77999973  12.71000004  52.22999954
H     9.28999996  12.61000061  52.88000107
H     7.00999975  11.79999924  52.29999924
H     8.34000015  10.44999981  48.50000000
H    16.31999969  11.61000061  48.11000061
H     5.50000000  10.67000008  50.77999878
H     6.19000006   9.68999958  49.48999786
