96

S    16.72000122  12.69999981  58.93000031
C    19.42000008  12.36999989  58.43000031
C    18.12999916  12.11999989  58.02999878
C    17.82999992  11.75000000  56.68000031
C    18.86999893  11.59000015  55.77999878
C    20.19000053  12.00000000  56.11000061
C    21.28000069  11.96000004  55.19000244
C    22.56999969  12.30000019  55.52000046
C    22.84000015  12.61000061  56.88000107
C    21.83000183  12.56000042  57.83000183
C    20.46999931  12.38000011  57.47000122
C    16.39999962  11.92000008  56.45999908
C    15.64000034  12.41000080  57.55000305
C    14.27999973  12.65999985  57.44999695
C    24.23000145  12.94000053  57.36999893
H    24.69759750  12.11107922  57.90135956
H    19.72999954  12.76999950  59.38999939
H    18.71000099  11.05999947  54.85000229
H    21.02999878  11.72000027  54.16999817
H    23.35000038  12.13000107  54.79000092
H    22.04999924  12.79999924  58.87000275
H    13.76999950  13.12000084  58.29000092
H    24.90999985  13.27999973  56.58000183
H    24.10000038  13.76999950  58.08000183
S    13.35999966  11.05000019  53.88000107
C    10.71000004  10.71000004  54.59000015
C    11.90000057  11.35000038  54.85000229
C    12.18999958  12.02000046  56.09000397
C    11.13000011  12.18999958  56.97000122
C     9.81000042  11.79999924  56.63999939
C     8.71999931  12.07999992  57.50999832
C     7.46000004  11.64000034  57.18999863
C     7.26999998  10.90000057  55.98999786
C     8.30999947  10.55999947  55.15999603
C     9.61999989  11.03000069  55.44000244
C    13.60999966  12.10000038  56.35000229
C    14.34999943  11.57999992  55.26000214
C    15.73999977  11.51000023  55.28999710
C     5.89999962  10.34999943  55.68999863
H     5.49671125  10.81696510  54.79144287
H    10.59999943  10.13000011  53.68000031
H    11.28000069  12.46999931  58.01000214
H     9.01000023  12.53999901  58.44999695
H     6.65999985  11.76000023  57.90999985
H     8.10999966  10.01000023  54.23999786
H    16.31000137  11.17000008  54.43000031
H     5.12000036  10.52000046  56.45000076
H     6.02999973   9.26999950  55.61999893
S    17.27000046  12.98999977  52.84000015
C    19.86999893  13.47000027  52.22000122
C    18.65999985  13.03999996  51.72999954
C    18.31999969  12.60000038  50.40999985
C    19.37000084  12.65999985  49.52000046
C    20.66999817  13.01000023  49.95999908
C    21.76000214  12.93000031  49.03999710
C    23.05000114  13.25000000  49.38000107
C    23.31999969  13.52000046  50.75000000
C    22.32000160  13.52000046  51.70000076
C    20.95999908  13.38000107  51.31999969
C    16.87999916  12.43999958  50.27000046
C    16.18000031  12.76999950  51.45999908
C    14.80000019  12.88000011  51.55000305
C    24.72999954  13.85000038  51.17000198
H    25.20062828  13.04422569  51.73332977
H    20.00000000  13.82999992  53.23999786
H    19.37999916  12.25000000  48.52000427
H    21.57999992  12.51000023  48.04999924
H    23.84000015  13.27999973  48.63999939
H    22.60999870  13.73999977  52.72999573
H    14.34000015  13.15000057  52.49000168
H    25.31999969  13.92000008  50.25000000
H    24.79999924  14.85000038  51.63000107
S    13.57999992  11.90000057  47.88000107
C    10.88999939  11.82000065  48.61000061
C    12.18999958  12.09000015  48.95999908
C    12.60000038  12.43000031  50.28999710
C    11.61999893  12.53000069  51.25999832
C    10.26999950  12.25000000  50.94999695
C     9.26999950  12.38000011  51.95000076
C     7.96999979  12.01000023  51.65999985
C     7.67000008  11.39000034  50.41999817
C     8.57999992  11.36000061  49.38999939
C     9.89999962  11.82999992  49.61999893
C    14.04999924  12.51000023  50.41999817
C    14.70999908  12.17000008  49.22000122
C    16.10000038  12.18999958  49.13999939
C     6.28000021  10.88000107  50.12000275
H     5.74528694  11.46461964  49.37140274
H    10.55999947  11.54999924  47.60000229
H    12.03999996  12.64000034  52.25999832
H     9.52999973  12.64000034  52.97000122
H     7.21000004  12.06999969  52.43999863
H     8.34999943  10.85000038  48.46000290
H    16.67000008  11.95000076  48.23999786
H     5.75999975  11.06999969  51.06999969
H     6.17999983   9.78999996  50.02999878
