96

S    16.80999947  12.61999989  58.43000031
C    19.45000076  12.79999924  57.71999741
C    18.18000031  12.46999931  57.30999756
C    17.76000023  11.89000034  56.06999969
C    18.78999901  11.61000061  55.20000076
C    20.13999939  11.96000004  55.48999786
C    21.09999847  11.73999977  54.45999908
C    22.42000198  11.92999935  54.78000259
C    22.78000069  12.48000050  56.04000092
C    21.84999847  12.76000023  57.01000214
C    20.46999931  12.46000099  56.79000092
C    16.31000137  11.77000046  56.02000427
C    15.60999966  12.15999985  57.19999695
C    14.22999954  12.28999996  57.16999817
C    24.25000000  12.79000092  56.25999832
H    24.49161911  12.88238430  57.31885910
H    19.71999931  13.38999939  58.59000397
H    18.53999901  11.11999989  54.27000046
H    20.76000023  11.38000011  53.48999786
H    23.22000122  11.92999935  54.05000305
H    21.97000122  13.27000046  57.95999908
H    13.75000000  12.71999931  58.04999924
H    24.96999931  12.05000019  55.87999725
H    24.50000000  13.68999958  55.68000031
S    13.09000015  10.84000015  53.68999863
C    10.38000011  10.88000107  54.40000153
C    11.68000031  11.23999977  54.68999863
C    12.03999996  11.80999947  55.94999695
C    11.00000000  12.13000107  56.81000137
C     9.67000008  11.69999981  56.63000107
C     8.67000008  11.82000065  57.63999939
C     7.39000034  11.43000031  57.36000061
C     7.03999996  11.03000069  56.04000092
C     7.97999954  10.95999908  55.04000092
C     9.35999966  11.09000015  55.35999680
C    13.48999977  11.82000065  56.07999802
C    14.22000027  11.28000069  54.99000168
C    15.59999943  11.32999992  54.89999771
C     5.59999990  10.70000076  55.72999954
H     5.20901251  11.27581882  54.89115143
H    10.11000061  10.57999992  53.39000320
H    11.14999962  12.48999977  57.81999969
H     8.94999981  11.94000053  58.68000031
H     6.67000008  11.43000031  58.18000031
H     7.59999990  10.47999954  54.13999939
H    16.18999863  11.13999939  54.00000000
H     4.92000008  10.77999973  56.59000015
H     5.71000004   9.63000011  55.51000214
S    17.43000031  12.97999954  52.47000122
C    20.10000038  12.90999985  51.81000137
C    18.81000137  12.61000061  51.42000198
C    18.39999962  12.23999977  50.10000229
C    19.45000076  11.90999985  49.27000046
C    20.79000092  12.20999908  49.61999893
C    21.81999969  12.05999947  48.64999771
C    23.11000061  12.48000050  48.87000275
C    23.44000053  13.12000084  50.10000229
C    22.49000168  13.28999996  51.06999969
C    21.14999962  12.84999943  50.86000061
C    16.95000076  12.18999958  49.98000336
C    16.28999901  12.50000000  51.19999695
C    14.91000080  12.51000023  51.27999878
C    24.86999893  13.52000046  50.40999985
H    25.35205269  12.90325737  51.16851807
H    20.15000153  13.36999989  52.78999710
H    19.37000084  11.56999969  48.23999786
H    21.59000015  11.65999985  47.67000198
H    23.84000015  12.23999977  48.09999847
H    22.80999947  13.63999939  52.04999924
H    14.29999924  12.79000092  52.14000320
H    25.36000061  13.63000011  49.43999863
H    24.79000092  14.51000023  50.86999893
S    13.68000031  11.32999992  47.70000076
C    10.98999977  11.36000061  48.48999786
C    12.30999947  11.59999943  48.80000305
C    12.69999981  12.18999958  50.04000092
C    11.75000000  12.48999977  51.00000000
C    10.38000011  12.23000050  50.72000122
C     9.31999969  12.35000038  51.65999985
C     8.01000023  12.09000015  51.37000275
C     7.65999985  11.50000000  50.13000107
C     8.67000008  11.18000031  49.25000000
C    10.00000000  11.64000034  49.45999908
C    14.14999962  12.18000031  50.14999771
C    14.84000015  11.82000065  48.95999908
C    16.21999931  11.75000000  48.86000061
C     6.26999950  11.03000069  49.79000092
H     5.80137253  11.61933422  49.00185394
H    10.67999935  11.06999969  47.49000168
H    12.11999989  12.84999943  51.95999908
H     9.55000019  12.88000011  52.58999634
H     7.16000032  12.31999969  52.01000214
H     8.53999996  10.57999992  48.36000061
H    16.79999924  11.46000004  47.98999786
H     5.66999960  11.05000019  50.70999908
H     6.42000008   9.98000050  49.51000214
