96

S    16.23999977  12.06999969  59.01000214
C    19.01000023  11.85999966  58.53000259
C    17.71000099  11.64999962  58.11999893
C    17.42000008  11.21000099  56.79000092
C    18.43000031  10.80000019  55.93000031
C    19.73999977  11.18000031  56.29000092
C    20.86999893  11.07999992  55.43000031
C    22.11000061  11.61999893  55.70000076
C    22.36999893  12.25000000  56.93999863
C    21.37000084  12.15999985  57.88000107
C    20.06000137  11.67000008  57.60000229
C    15.98999977  11.28000069  56.52999878
C    15.21000004  11.82999992  57.57999802
C    13.82999992  11.89000034  57.56000137
C    23.78999901  12.67000008  57.25000000
H    24.21847725  12.10583782  58.07838821
H    19.22000122  12.41000080  59.45000076
H    18.20999908  10.26000023  55.01999664
H    20.65999985  10.62000084  54.47000122
H    22.90999985  11.32999992  55.01999664
H    21.60000038  12.46999931  58.89999771
H    13.38000107  12.23000050  58.48999786
H    24.41999817  12.46000099  56.37000275
H    23.85999870  13.76000023  57.39999771
S    12.89000034  10.39000034  54.00000000
C    10.25000000  10.08999920  54.80999756
C    11.46000004  10.72000027  55.00000000
C    11.71000004  11.50000000  56.17000198
C    10.72000027  11.68000031  57.11999893
C     9.44000053  11.11999989  56.91999817
C     8.38999939  11.32999992  57.85999680
C     7.11000013  10.95000076  57.54000092
C     6.84000015  10.43000031  56.24000168
C     7.83999968  10.15999985  55.33000183
C     9.19000053  10.40999985  55.68999863
C    13.15000057  11.63000011  56.36000061
C    13.89999962  11.10999966  55.27000046
C    15.27999973  10.95000076  55.37000275
C     5.36999989  10.21000004  55.97999954
H     4.94411087  10.67847824  55.09273148
H    10.01000023   9.43000031  53.97999573
H    10.95000076  12.11999989  58.09000015
H     8.59000015  11.97000027  58.70999908
H     6.32000017  11.26999950  58.20999908
H     7.63999987   9.81000042  54.31999969
H    15.77000046  10.34999943  54.61000061
H     4.79999971  10.59000015  56.84000015
H     5.25000000   9.11999989  55.93000031
S    13.32999992   8.43999958  51.02000427
C    10.55999947   8.00000000  51.43000031
C    11.85999966   7.92999983  51.86999893
C    12.28000069   7.28999996  53.08000183
C    11.30000019   6.61999989  53.80000305
C     9.92999935   6.67999983  53.43999863
C     8.85000038   6.15999985  54.20999908
C     7.51999950   6.32000017  53.88999939
C     7.22000027   6.89000034  52.63000107
C     8.23000050   7.27999973  51.77999878
C     9.57999992   7.32999992  52.21000290
C    13.69999981   7.37999964  53.40000153
C    14.40999985   8.05000019  52.36999893
C    15.77000046   8.32999992  52.41000366
C     5.77000046   7.23999977  52.34000397
H     5.29456520   6.46653175  51.73683929
H    10.34000015   8.52999973  50.51000214
H    11.64000034   6.11000013  54.68999863
H     9.01000023   5.59000015  55.12000275
H     6.88000011   5.91000032  54.65999985
H     7.86000013   7.76000023  50.86999893
H    16.34000015   8.80000019  51.60999680
H     5.21000004   7.36999989  53.27000046
H     5.64000034   8.21000004  51.84000015
S    17.02000046   6.61999989  55.77000046
C    19.72999954   7.18999958  55.18000031
C    18.38999939   7.37999964  54.93999863
C    17.94999886   8.03999996  53.75000000
C    18.86999893   8.63000011  52.90000153
C    20.26000023   8.46000004  53.13999939
C    21.21000099   8.96000004  52.21000290
C    22.55000114   8.89999962  52.48000336
C    23.00000000   8.19000053  53.61999893
C    22.10000038   7.65999985  54.52000046
C    20.69999886   7.76000023  54.31999969
C    16.53000069   7.83999968  53.47999954
C    15.88000107   7.09000015  54.48999786
C    14.50000000   7.00999975  54.47999954
C    24.48999786   8.00000000  53.81000137
H    24.83271408   8.29273605  54.80244827
H    19.92000008   6.54999971  56.04000092
H    18.56999969   8.97000027  51.90999985
H    20.81999969   9.26999950  51.24000168
H    23.29999924   9.35000038  51.83000183
H    22.56000137   7.21000004  55.40000153
H    14.00000000   6.69000053  55.38999939
H    25.03000069   8.52000046  53.01000214
H    24.69000053   6.93000031  53.67000198
