96

S    16.43000031  12.32999992  58.68000031
C    19.15999985  12.30999947  58.06999969
C    17.86999893  11.95000076  57.72999573
C    17.47999954  11.59000015  56.39999771
C    18.53000069  11.32999992  55.54000092
C    19.86999893  11.72000027  55.81999969
C    20.94000053  11.59999943  54.88999939
C    22.21999931  11.97999954  55.21999741
C    22.55000114  12.46999931  56.51000214
C    21.54000092  12.61999989  57.43999863
C    20.20999908  12.23000050  57.11999893
C    16.03999901  11.64999962  56.17000198
C    15.32999992  12.10999966  57.30999756
C    13.94000053  12.20999908  57.37999725
C    23.97000122  12.84999943  56.83000183
H    24.49553108  12.10431290  57.42655182
H    19.40999985  12.68000031  59.06000137
H    18.36000061  10.92000008  54.54999924
H    20.71000099  11.09000015  53.95999908
H    23.02000046  11.97999954  54.47999954
H    21.70000076  13.09999943  58.40000153
H    13.48999977  12.35999966  58.34999847
H    24.56999969  12.86000061  55.90999985
H    24.01000023  13.88000011  57.22000122
S    12.82999992  10.70000076  53.88000107
C    10.13000011  10.59000015  54.71000290
C    11.44000053  10.93000031  54.94999695
C    11.77000046  11.56999969  56.18999863
C    10.82999992  11.61000061  57.21000290
C     9.48999977  11.23000050  56.98999786
C     8.47999954  11.36999989  57.97999954
C     7.16000032  11.10999966  57.68000031
C     6.85999966  10.69000053  56.36000061
C     7.75000000  10.52999973  55.31999969
C     9.11000061  10.75000000  55.68999863
C    13.21000004  11.79999924  56.25999832
C    13.93000031  11.33999920  55.12000275
C    15.31000042  11.25000000  55.05000305
C     5.40000010  10.42000008  56.04999924
H     4.99970913  10.94895649  55.18508911
H     9.85000038  10.24000072  53.72000122
H    11.13000011  12.02999973  58.16999817
H     8.89999962  11.59000015  58.95000076
H     6.37000036  11.26000023  58.40999985
H     7.44000006  10.03000069  54.40999985
H    15.76000023  10.67000008  54.25000000
H     4.79999971  10.69000053  56.93000031
H     5.10999966   9.35999966  56.03000259
S    16.97999954  12.76000023  52.70999908
C    19.68000031  13.15000057  51.93000031
C    18.43000031  12.61000061  51.70000076
C    18.07999992  11.98999977  50.45999908
C    19.06999969  11.72999954  49.52999878
C    20.38000107  12.25000000  49.72000122
C    21.44000053  12.02000046  48.80000305
C    22.73999977  12.41000080  49.01000214
C    23.00000000  13.02000046  50.27000046
C    22.01000023  13.38999939  51.14999771
C    20.68000031  12.93000031  50.94999695
C    16.65999985  11.75000000  50.24000168
C    15.95000076  12.23999977  51.36000061
C    14.55999947  12.28000069  51.40999603
C    24.44000053  13.42000008  50.52000046
H    25.05882645  12.74426937  51.11037445
H    19.97999954  13.53000069  52.90000153
H    18.94000053  11.31999969  48.53000259
H    21.21000099  11.43000031  47.90999985
H    23.57000160  12.23999977  48.34000015
H    22.23999977  13.92000008  52.08000183
H    13.97999954  12.55000019  52.29000092
H    24.96999931  13.43999958  49.55999756
H    24.31999969  14.45000076  50.86999893
S    13.42000008  11.05999947  47.81999969
C    10.70000076  11.18000031  48.53000259
C    12.02999973  11.30000019  48.88000107
C    12.38999939  11.80999947  50.17000198
C    11.40999985  12.13999939  51.09000397
C    10.03999901  11.90999985  50.80999756
C     8.98999977  11.95000076  51.77000046
C     7.72000027  11.59999943  51.40999603
C     7.36000013  11.18000031  50.10000229
C     8.34999943  11.13000011  49.13999939
C     9.70000076  11.43000031  49.50000000
C    13.83999920  11.92000008  50.27000046
C    14.55000019  11.49000072  49.12000275
C    15.93999958  11.39999962  49.09999847
C     5.97000027  10.72999954  49.73999786
H     5.57838726  11.46338463  49.03509521
H    10.31000042  10.85999966  47.56000137
H    11.72999954  12.41000080  52.09000015
H     9.22999954  12.27000046  52.77999878
H     6.98000002  11.56999969  52.21000290
H     8.18000031  10.78999996  48.11999893
H    16.36000061  11.00000000  48.18000031
H     5.45000029  10.60999966  50.70000076
H     5.98000002   9.67000008  49.45999908
