96

S    16.94000053  12.30999947  58.83999634
C    19.63000107  12.34000015  58.11999893
C    18.32999992  12.05000019  57.77000046
C    17.94999886  11.54999924  56.47999573
C    18.95000076  11.36000061  55.54000092
C    20.30999947  11.61999893  55.86000061
C    21.30000114  11.72999954  54.84000397
C    22.56999969  12.18000031  55.08999634
C    22.90999985  12.51999950  56.43000031
C    22.03000069  12.34000015  57.47000122
C    20.65999985  12.09000015  57.16999817
C    16.51000023  11.54999924  56.31000137
C    15.84000015  11.85999966  57.51999664
C    14.46000004  11.95000076  57.55000305
C    24.33000183  12.88000011  56.79999924
H    24.67085648  12.42552567  57.73025131
H    19.86999893  12.76999950  59.08000183
H    18.81000137  11.18000031  54.47999954
H    21.01000023  11.39999962  53.85000229
H    23.26999855  12.25999928  54.26000214
H    22.20999908  12.35000038  58.54000092
H    14.01000023  12.23000050  58.50000000
H    24.96000099  12.53000069  55.97000122
H    24.38999939  13.96999931  56.93000031
S    13.26000023  10.88000107  53.95999908
C    10.55999947  10.77000046  54.62999725
C    11.84000015  11.09000015  55.00999832
C    12.20999908  11.51999950  56.31999969
C    11.21999931  11.63000011  57.28000259
C     9.89999962  11.26999950  56.93999863
C     8.80000019  11.36000061  57.84000015
C     7.49000025  11.16000080  57.45999908
C     7.22000027  10.57000065  56.19999695
C     8.21000004  10.44999981  55.26000214
C     9.53999996  10.84000015  55.61000061
C    13.66000080  11.63000011  56.45000076
C    14.37000084  11.16000080  55.31999969
C    15.76000023  11.11999989  55.20999908
C     5.78999996  10.22999954  55.84999847
H     5.32120275  10.85506248  55.08998108
H    10.31000042  10.26999950  53.69999695
H    11.47999954  12.02999973  58.26000214
H     9.13000011  11.56999969  58.85000229
H     6.67000008  11.13000011  58.16999817
H     8.05999947  10.11999989  54.22999954
H    16.18999863  10.72999954  54.29999924
H     5.35000038  10.25000000  56.84999847
H     5.68000031   9.17000008  55.58000183
S    13.40999985   8.56000042  51.02000427
C    10.77999973   8.01999950  51.83000183
C    12.13000107   7.92000008  52.05999756
C    12.69999981   7.40999985  53.27000046
C    11.78999996   6.90999985  54.19000244
C    10.39000034   6.98999977  54.03999710
C     9.46000004   6.52999973  55.01999664
C     8.11999989   6.40999985  54.72999954
C     7.57999992   7.09999990  53.61000061
C     8.45000076   7.62000036  52.68000031
C     9.86999989   7.57000017  52.81999969
C    14.13000011   7.60999966  53.40000153
C    14.60999966   8.38999939  52.30999756
C    15.92000008   8.82000065  52.18999863
C     6.09000015   7.11000013  53.34999847
H     5.74794340   7.50906610  52.39509201
H    10.39999962   8.46000004  50.90999985
H    12.18000031   6.40999985  55.06999969
H     9.84000015   6.03999996  55.90999985
H     7.46000004   5.92999983  55.44000244
H     8.13000011   8.01999950  51.72999954
H    16.34000015   9.09000015  51.22000122
H     5.72000027   6.10000038  53.59000397
H     5.58000040   7.79999971  54.03999710
S    17.46999931   7.39000034  55.56000137
C    20.12000084   8.03999996  54.79000092
C    18.77000046   8.05000019  54.54999924
C    18.20999908   8.64000034  53.36999893
C    19.07999992   9.21000004  52.47000122
C    20.48999977   9.13000011  52.63000107
C    21.37000084   9.52999973  51.59000015
C    22.73999977   9.52999973  51.77000046
C    23.29000092   9.02000046  52.97999954
C    22.44999886   8.52999973  53.95000076
C    21.02999878   8.60000038  53.85000229
C    16.77000046   8.47000027  53.25000000
C    16.21999931   7.79999971  54.36999893
C    14.94999981   7.23000002  54.47000122
C    24.76000023   9.22000027  53.25000000
H    25.12906647   8.78705788  54.17975998
H    20.53999901   7.59000015  55.68999863
H    18.75000000   9.65999985  51.52999878
H    21.02000046   9.98999977  50.66999817
H    23.31999969  10.17000008  51.11999893
H    22.92000008   8.09000015  54.81999969
H    14.52000046   6.70000029  55.31000137
H    24.82000160  10.31999969  53.29999924
H    25.34000015   8.93000031  52.36000061
