96

S    15.95999908  12.58999920  58.54000092
C    18.68999863  12.57999992  57.95000076
C    17.40999985  12.22000027  57.58999634
C    17.12000084  11.65999985  56.30000305
C    18.15999985  11.38000011  55.43000031
C    19.48999977  11.69000053  55.79999924
C    20.61000061  11.40999985  54.95999908
C    21.87000084  11.84999943  55.30000305
C    22.11999893  12.56000042  56.50000000
C    21.07999992  12.71999931  57.39999771
C    19.78000069  12.23999977  57.09999847
C    15.69000053  11.51999950  56.11999893
C    14.94999981  12.13999939  57.15999985
C    13.56999969  12.23000050  57.04000092
C    23.44000053  13.25000000  56.76000214
H    24.03331375  12.67098331  57.46768951
H    18.88000107  13.32999992  58.70999908
H    18.04999924  10.93999958  54.43999863
H    20.50000000  10.80999947  54.06999969
H    22.69000053  11.89000034  54.59999847
H    21.22999954  13.30000019  58.29999924
H    12.98999977  12.39999962  57.94000244
H    24.00000000  13.45000076  55.84000015
H    23.29000092  14.22999954  57.22999954
S    12.53999901  10.47999954  53.68000031
C     9.81000042  10.46000004  54.40999985
C    11.09000015  10.90000057  54.61999893
C    11.44999981  11.56999969  55.83000183
C    10.47999954  11.80999947  56.79000092
C     9.15000057  11.35000038  56.59000015
C     8.10999966  11.67000008  57.50000000
C     6.77999973  11.59999943  57.12999725
C     6.44999981  10.93999958  55.91999817
C     7.40000010  10.64000034  54.98000336
C     8.78000069  10.75000000  55.33000183
C    12.89000034  11.73999977  55.91999817
C    13.64999962  11.10000038  54.92000198
C    15.03999901  10.98999977  54.99000168
C     4.97000027  10.65999985  55.76000214
H     4.55739641  11.27890587  54.96324921
H     9.57999992  10.08999920  53.40999985
H    10.72000027  12.36999989  57.69000244
H     8.47000027  12.20999908  58.36999893
H     5.98999977  11.92000008  57.80000305
H     7.07000017  10.32999992  53.99000168
H    15.54999924  10.36000061  54.27000046
H     4.46999979  10.84000015  56.72000122
H     4.92000008   9.59000015  55.54999924
S    13.34000015   8.50000000  50.97000122
C    10.70000076   7.77999973  51.43000031
C    11.98999977   7.82000017  51.90000153
C    12.38000011   7.23999977  53.15000153
C    11.38000011   6.76000023  53.96999741
C    10.01999950   6.86999989  53.60000229
C     8.94999981   6.50000000  54.45999908
C     7.64999962   6.74000025  54.09000015
C     7.28999996   7.42999983  52.90000153
C     8.28999996   7.63999987  51.97999954
C     9.64999962   7.35000038  52.29000092
C    13.78000069   7.57999992  53.39000320
C    14.47000027   8.14000034  52.29000092
C    15.80000019   8.52999973  52.36000061
C     5.84000015   7.77999973  52.67000198
H     5.44844627   7.23894405  51.80858231
H    10.52000046   8.42000008  50.56999969
H    11.59000015   6.25999975  54.92000198
H     9.26000023   6.15999985  55.45000076
H     6.80999994   6.51999998  54.75999832
H     8.01999950   8.01000023  51.00000000
H    16.31000137   8.75000000  51.42000198
H     5.36000013   7.60999966  53.63999939
H     5.69000006   8.86999989  52.62000275
S    17.05000114   7.16000032  55.86999893
C    19.76000023   7.57000017  55.15999603
C    18.42000008   7.69999981  54.87999725
C    17.98999977   8.26000023  53.62999725
C    18.88000107   8.75000000  52.69000244
C    20.26000023   8.56000042  52.94000244
C    21.21999931   8.97999954  51.97000122
C    22.56000137   8.90999985  52.23999786
C    23.00000000   8.27999973  53.43999863
C    22.10000038   7.72000027  54.31000137
C    20.69999886   7.92000008  54.15999985
C    16.54999924   8.10000038  53.46000290
C    15.90999985   7.48000050  54.54999924
C    14.52999973   7.30000019  54.54000092
C    24.48999786   8.19999981  53.68999863
H    24.78198433   8.60592937  54.65853500
H    20.05000114   7.09999990  56.09000397
H    18.59000015   9.15999985  51.72999954
H    20.79000092   9.36999989  51.04999924
H    23.32999992   9.26999950  51.56999969
H    22.42000198   7.16000032  55.19000244
H    13.93000031   6.88000011  55.34000015
H    25.06000137   8.57999992  52.84000015
H    24.61999893   7.11000013  53.63999939
