96

S    16.45000076  12.72999954  58.66000366
C    19.12999916  12.84999943  58.02000046
C    17.86000061  12.48000050  57.62000275
C    17.56999969  11.75000000  56.43000031
C    18.61999893  11.54999924  55.54999924
C    19.89999962  12.06999969  55.87999725
C    21.01000023  11.87999916  55.00999832
C    22.30999947  12.15000057  55.37000275
C    22.57999802  12.86000061  56.56999969
C    21.55999947  13.07000065  57.47000122
C    20.22999954  12.64000034  57.15999985
C    16.13000107  11.63000011  56.25000000
C    15.39999962  12.10999966  57.36999893
C    14.02999973  12.31999969  57.35000229
C    23.98999977  13.34000015  56.79999924
H    24.54600906  12.67706871  57.46292877
H    19.31999969  13.27999973  58.99000168
H    18.43000031  10.88000107  54.72000122
H    20.89999962  11.44000053  54.02999878
H    23.09000015  12.09000015  54.61000061
H    21.70000076  13.42000008  58.47999954
H    13.52000046  12.61999989  58.26000214
H    24.63999939  13.52000046  55.93000031
H    23.81000137  14.34000015  57.21000290
S    13.01000023  10.88000107  53.76999664
C    10.27999973  11.00000000  54.29000092
C    11.56000042  11.25000000  54.72000122
C    11.90000057  11.65999985  56.04999924
C    10.80999947  11.80999947  56.90000153
C     9.48000050  11.47999954  56.52999878
C     8.47000027  11.59000015  57.51999664
C     7.17999983  11.21999931  57.18000031
C     6.90999985  10.67000008  55.90000153
C     7.86999989  10.59999943  54.91000366
C     9.19999981  11.02000046  55.20000076
C    13.32999992  11.84999943  56.23000336
C    14.06000042  11.36000061  55.12000275
C    15.44000053  11.19999981  55.11000061
C     5.58000040  10.15999985  55.40000153
H     5.10870600  10.73126507  54.60022736
H    10.05000019  10.62000084  53.29000092
H    10.98999977  12.09000015  57.93000031
H     8.78000069  11.96000004  58.48999786
H     6.37000036  11.19999981  57.90000153
H     7.67000008  10.21999931  53.90999603
H    16.00000000  10.81999969  54.26000214
H     4.92999983  10.06999969  56.27999878
H     5.73999977   9.15999985  54.97000122
S    17.18000031  12.94000053  52.72999573
C    19.86999893  13.28999996  52.16999817
C    18.61999893  12.96000004  51.69000244
C    18.38000107  12.31999969  50.43000031
C    19.47000122  12.10000038  49.61000061
C    20.72999954  12.58999920  50.00000000
C    21.81999969  12.60000038  49.08000183
C    23.09999847  12.93000031  49.43000031
C    23.34000015  13.38000107  50.76000214
C    22.30999947  13.52000046  51.65999985
C    20.97999954  13.12000084  51.31000137
C    16.97999954  11.97000027  50.22999573
C    16.21000099  12.32999992  51.37000275
C    14.81999969  12.30999947  51.40999603
C    24.72999954  13.76999950  51.20999908
H    25.17278862  12.99155045  51.83133316
H    20.03000069  13.75000000  53.13999939
H    19.42000008  11.65999985  48.61999893
H    21.61000061  12.28999996  48.06000137
H    23.92999840  12.97999954  48.73000336
H    22.59000015  13.90999985  52.63000107
H    14.42000008  12.58999920  52.37999725
H    25.34000015  14.01999950  50.33000183
H    24.77999878  14.72000027  51.76000214
S    13.76000023  11.39000034  47.72999573
C    11.00999928  11.51999950  48.31999969
C    12.30999947  11.77000046  48.67000198
C    12.69999981  12.27000046  49.95999908
C    11.72999954  12.50000000  50.93000031
C    10.40999985  12.15000057  50.56999969
C     9.35999966  12.30000019  51.52000046
C     8.10000038  11.78999996  51.31000137
C     7.72000027  11.23999977  50.06000137
C     8.64000034  11.23000050  49.03999710
C     9.98999977  11.57999992  49.31999969
C    14.13000011  12.18000031  50.20000076
C    14.85999966  11.72999954  49.08000183
C    16.23999977  11.54000092  49.12000275
C     6.30000019  10.81999969  49.77000427
H     5.80082893  11.47605324  49.05689621
H    10.70000076  11.09000015  47.36999893
H    12.06999969  12.82999992  51.90999985
H     9.67000008  12.86000061  52.39999771
H     7.53999996  11.79999924  52.23999786
H     8.40999985  10.85000038  48.04999924
H    16.72000122  11.28999901  48.18000031
H     5.65999985  10.72000027  50.65999985
H     6.26999950   9.77000046  49.41999817
