96

S    16.69999886  11.97999954  58.75999832
C    19.44000053  12.32999992  58.16999817
C    18.17000008  12.02999973  57.76000214
C    17.80999947  11.76000023  56.39999771
C    18.86000061  11.71000004  55.50000000
C    20.20000076  11.98999977  55.84999847
C    21.25000000  11.84999943  54.89999771
C    22.56000137  12.10000038  55.20000076
C    22.86000061  12.53000069  56.52000046
C    21.84999847  12.68000031  57.44999695
C    20.48999977  12.32999992  57.22000122
C    16.38000107  11.59000015  56.17000198
C    15.62999916  11.82999992  57.35000229
C    14.26000023  12.01000023  57.34000397
C    24.30999947  12.84999943  56.79000092
H    24.70956802  12.13648319  57.51065445
H    19.65999985  12.84999943  59.09999847
H    18.64999962  11.30000019  54.52000046
H    21.07999992  11.47999954  53.88999939
H    23.32999992  11.87000084  54.47000122
H    22.13000107  12.89000034  58.47999954
H    13.71000099  12.17000008  58.27000046
H    25.03000069  12.84000015  55.97000122
H    24.34999847  13.86999989  57.19999695
S    13.22999954  11.26000023  53.61000061
C    10.46000004  11.19999981  54.25000000
C    11.77000046  11.44000053  54.59000015
C    12.17000008  11.69999981  55.93999863
C    11.23999977  11.65999985  56.95000076
C     9.88000011  11.39999962  56.63000107
C     8.89000034  11.18999958  57.63000107
C     7.62000036  10.73999977  57.36999893
C     7.26000023  10.38000011  56.04000092
C     8.19999981  10.55999947  55.05000305
C     9.48000050  11.13000011  55.27999878
C    13.60999966  11.77999973  56.11999893
C    14.37000084  11.51999950  54.94999695
C    15.76000023  11.43000031  54.93000031
C     5.84999990   9.94999981  55.72999954
H     5.31716347  10.53967190  54.98402786
H    10.21000004  10.85000038  53.25000000
H    11.59999943  11.85999966  57.95999908
H     9.15999985  11.26000023  58.68000031
H     6.94000006  10.59000015  58.20000076
H     7.96999979  10.24000072  54.02999878
H    16.25000000  11.28000069  53.96999741
H     5.23999977   9.92000008  56.63999939
H     5.86000013   8.90999985  55.37000275
S    14.06999969   9.28999996  50.84000015
C    11.40999985   8.61999989  51.31000137
C    12.74000072   8.43000031  51.63000107
C    13.09999943   7.71000004  52.81000137
C    12.11999989   7.13000011  53.59000397
C    10.76000023   7.32999992  53.26000214
C     9.68000031   7.00000000  54.12000275
C     8.36000061   7.20000029  53.76999664
C     7.97999954   7.76000023  52.51999664
C     9.00000000   8.25000000  51.72999954
C    10.36000061   8.03999996  52.05999756
C    14.47999954   7.99000025  53.16999817
C    15.11000061   8.78999996  52.18999863
C    16.47999954   9.00000000  52.15999985
C     6.51000023   7.86000013  52.21000290
H     6.06984949   6.88740921  51.98992538
H    11.18000031   9.22000027  50.43000031
H    12.30999947   6.57999992  54.51000214
H     9.94999981   6.61999989  55.10000229
H     7.50999975   6.96000004  54.40000153
H     8.73999977   8.71999931  50.77999878
H    16.97999954   9.52999973  51.35000229
H     6.11000013   8.30000019  53.13000107
H     6.43000031   8.61999989  51.42000198
S    17.72999954   7.26000023  55.52999878
C    20.43000031   7.57999992  54.79999924
C    19.10000038   7.88000011  54.59000015
C    18.63000107   8.51000023  53.39000320
C    19.59000015   9.13999939  52.62000275
C    20.96999931   8.85999966  52.77999878
C    21.96000099   9.48000050  51.97000122
C    23.29000092   9.35000038  52.29999924
C    23.74000168   8.59000015  53.41999817
C    22.79000092   7.96000004  54.19000244
C    21.40999985   8.03999996  53.88000107
C    17.18000031   8.47000027  53.25000000
C    16.54000092   7.88000011  54.36999893
C    15.18000031   7.60999966  54.33000183
C    25.07999802   9.03999996  53.97999573
H    25.39415550   8.47594833  54.85820389
H    20.76000023   7.03999996  55.68999863
H    19.26000023   9.61000061  51.70000076
H    21.60000038  10.21000004  51.25999832
H    24.00000000  10.01000023  51.83000183
H    23.09999847   7.55999994  55.14999771
H    14.63999939   7.11000013  55.12000275
H    24.92000198  10.05000019  54.38999939
H    25.86999893   9.02000046  53.22000122
