96

S    16.97999954  12.81000042  58.60000229
C    19.63000107  13.12000084  57.78999710
C    18.38999939  12.58999920  57.52999878
C    18.06999969  11.90000057  56.31999969
C    19.05999947  11.72000027  55.37000275
C    20.34000015  12.28999996  55.59000015
C    21.37000084  12.22000027  54.61000061
C    22.65999985  12.50000000  55.00000000
C    23.02999878  12.98999977  56.27999878
C    22.00000000  13.27999973  57.15000153
C    20.66999817  12.86999893  56.86999893
C    16.63999939  11.69000053  56.23000336
C    15.90000057  12.15999985  57.35000229
C    14.52000046  12.28000069  57.34000397
C    24.44999886  13.35000038  56.65000153
H    24.86880875  12.68984318  57.40953445
H    19.88999939  13.55000019  58.75999832
H    18.78999901  11.35000038  54.38000107
H    21.02000046  11.82999992  53.66000366
H    23.52999878  12.32999992  54.36999893
H    22.20999908  13.89000034  58.02999878
H    14.07999992  12.75000000  58.20999908
H    25.12000084  13.35000038  55.79000092
H    24.43000031  14.37000084  57.04999924
S    13.40999985  10.95999908  53.77999878
C    10.65999985  11.07999992  54.43999863
C    11.97999954  11.23000050  54.79999924
C    12.35999966  11.69000053  56.10000229
C    11.39000034  11.79999924  57.08000183
C    10.01999950  11.61000061  56.77000046
C     9.02999973  11.76000023  57.77000046
C     7.73000002  11.39999962  57.48000336
C     7.36999989  11.10000038  56.13999939
C     8.28999996  10.97000027  55.12000275
C     9.65999985  11.21999931  55.43000031
C    13.80000019  11.79999924  56.24000168
C    14.52000046  11.33999920  55.11000061
C    15.90999985  11.23000050  55.13000107
C     6.01999998  10.47999954  55.84999847
H     5.51439810  11.06393528  55.08091736
H    10.44000053  10.93000031  53.39000320
H    11.75000000  11.98999977  58.09000015
H     9.28999996  11.92999935  58.81999969
H     7.03999996  11.18999958  58.29000092
H     8.09000015  10.57000065  54.13999939
H    16.40999985  10.81999969  54.25000000
H     5.44000053  10.44999981  56.77999878
H     6.11999989   9.44999981  55.47000122
S    13.30999947   8.93999958  50.73999786
C    10.65000057   8.71999931  51.56999969
C    11.98999977   8.56999969  51.86999893
C    12.48000050   7.85000038  53.00000000
C    11.50000000   7.31999969  53.81999969
C    10.11000061   7.44000006  53.57999802
C     9.11000061   6.91999960  54.45999908
C     7.77999973   7.05999947  54.18000031
C     7.36999989   7.76000023  53.01000214
C     8.27999973   8.36000061  52.16999817
C     9.67000008   8.17000008  52.43000031
C    13.94000053   7.88000011  53.08000183
C    14.51000023   8.56999969  51.98999786
C    15.86999989   8.86999989  51.91999817
C     5.92999983   8.14999962  52.76000214
H     5.49517441   7.79358530  51.82619476
H    10.31000042   9.27999973  50.70999908
H    11.72000027   6.54999971  54.55999756
H     9.50000000   6.32000017  55.27999878
H     7.11999989   6.57000017  54.88999939
H     7.88000011   8.97999954  51.38000107
H    16.29999924   9.19999981  50.97999954
H     5.33999968   7.79999971  53.61999893
H     5.88000011   9.23999977  52.85999680
S    17.13999939   7.44000006  55.47000122
C    19.78999901   7.90999985  54.88999939
C    18.47999954   8.11999989  54.52999878
C    18.07999992   8.64000034  53.26000214
C    19.07999992   9.07999992  52.41000366
C    20.43000031   9.11000061  52.83000183
C    21.50000000   9.61000061  52.02999878
C    22.79999924   9.50000000  52.45999908
C    23.22000122   8.69999981  53.55999756
C    22.19000053   8.21000004  54.33000183
C    20.81000137   8.39999962  54.02999878
C    16.63999939   8.60000038  53.06000137
C    16.04999924   7.88000011  54.13000107
C    14.75000000   7.39000034  54.10999680
C    24.65999985   8.32999992  53.81000137
H    25.18438530   8.88273048  54.58949280
H    20.05000114   7.30000019  55.73999786
H    18.86999893   9.38000011  51.38999939
H    21.24000168  10.14999962  51.12999725
H    23.55999947   9.98000050  51.84999847
H    22.36000061   7.71000004  55.27000046
H    14.39000034   6.69000053  54.86000061
H    25.17999840   8.38999939  52.84999847
H    24.75000000   7.26000023  54.01000214
