96

S    16.22999954  12.13000107  59.09000015
C    18.81000137  12.53999901  58.11999893
C    17.59000015  11.92999935  57.97000122
C    17.20000076  11.28000069  56.75000000
C    18.15000153  11.14999962  55.75000000
C    19.47000122  11.59000015  55.97000122
C    20.51000214  11.40999985  55.01999664
C    21.86000061  11.61000061  55.24000168
C    22.20000076  12.25999928  56.45999908
C    21.21000099  12.61000061  57.36000061
C    19.84000015  12.27000046  57.18999863
C    15.75000000  11.17000008  56.70000076
C    15.06999969  11.75000000  57.80000305
C    13.69999981  11.95000076  57.83000183
C    23.62999916  12.58999920  56.79000092
H    24.15773201  11.89111328  57.43896866
H    19.01000023  13.15999985  58.99000168
H    18.00000000  10.62999916  54.80999756
H    20.22999954  11.09000015  54.02000046
H    22.52000046  11.33999920  54.43000031
H    21.37000084  13.12000084  58.29999924
H    13.22000027  12.20000076  58.77999878
H    24.21999931  12.67000008  55.86999893
H    23.69999886  13.55999947  57.29000092
S    12.60000038  10.64000034  54.20999908
C     9.94000053  10.65999985  54.82999802
C    11.19999981  11.03999996  55.21999741
C    11.51999950  11.56000042  56.52000046
C    10.50000000  11.64000034  57.44999695
C     9.17000008  11.33999920  57.05999756
C     8.00000000  11.52999973  57.84999847
C     6.71000004  11.31000042  57.42000198
C     6.44999981  10.76000023  56.13999939
C     7.55000019  10.47999954  55.34999847
C     8.86999989  10.80999947  55.75000000
C    12.96000004  11.61000061  56.69000244
C    13.64999962  11.09000015  55.56999969
C    15.03999901  10.95000076  55.52000046
C     5.09000015  10.17000008  55.81999969
H     4.74160624  10.69614506  54.93124008
H     9.78999996  10.10000038  53.90999603
H    10.70000076  11.96000004  58.47000122
H     8.23000050  11.92000008  58.82999802
H     5.86999989  11.59000015  58.04999924
H     7.42999983  10.01999950  54.38000107
H    15.57999992  10.72000027  54.61000061
H     4.44000006  10.46000004  56.65999985
H     5.05000019   9.07999992  55.72999954
S    17.02000046  12.51999950  52.98999786
C    19.69000053  12.79999924  52.14000320
C    18.40999985  12.34000015  51.90999985
C    18.05999947  11.73999977  50.65999985
C    19.06999969  11.52999973  49.73999786
C    20.42000008  11.92000008  49.95999908
C    21.44000053  11.82000065  48.96999741
C    22.70000076  12.28000069  49.26000214
C    23.02000046  12.88000011  50.51000214
C    22.04999924  13.01000023  51.47999573
C    20.71000099  12.63000011  51.17000198
C    16.61000061  11.61999893  50.52999878
C    15.90999985  12.10000038  51.66999817
C    14.55000019  12.38000011  51.69000244
C    24.44000053  13.27999973  50.80999756
H    24.86918640  12.59330177  51.53961945
H    19.92000008  13.32999992  53.06000137
H    18.86999893  11.05000019  48.79000092
H    21.18999863  11.40999985  47.98999786
H    23.52999878  12.25000000  48.56999969
H    22.37999916  13.34000015  52.45999908
H    14.01000023  12.67000008  52.58999634
H    25.12000084  13.19000053  49.95999908
H    24.40999985  14.32999992  51.16000366
S    13.47000027  10.90999985  48.09999847
C    10.71000004  10.98999977  48.80000305
C    12.02999973  11.28999901  49.06000137
C    12.36999989  11.90999985  50.30000305
C    11.38000011  12.25000000  51.19999695
C    10.05000019  11.84000015  50.98999786
C     9.01000023  12.03999996  51.95999908
C     7.73000002  11.59000015  51.76000214
C     7.40999985  10.98000050  50.52000046
C     8.32999992  10.88999939  49.48999786
C     9.68999958  11.23000050  49.75000000
C    13.80000019  11.98999977  50.56999969
C    14.48999977  11.43000031  49.45999908
C    15.85000038  11.16000080  49.45000076
C     5.97000027  10.59000015  50.25000000
H     5.57784319  11.18180084  49.42290497
H    10.54999924  10.47000027  47.85999680
H    11.72999954  12.57999992  52.18000031
H     9.30999947  12.46999931  52.90999985
H     6.94999981  11.69000053  52.50999832
H     8.00000000  10.19000053  48.73000336
H    16.32999992  11.02000046  48.48999786
H     5.36999989  10.54999924  51.16000366
H     6.00000000   9.52000046  50.00999832
