96

S    16.70999908  12.53000069  58.68000031
C    19.37999916  12.53999901  57.94000244
C    18.09000015  12.17000008  57.62000275
C    17.76000023  11.72999954  56.30000305
C    18.81000137  11.54999924  55.40999985
C    20.15000153  11.90000057  55.72000122
C    21.24000168  11.80999947  54.80999756
C    22.52000046  12.05999947  55.24000168
C    22.81999969  12.53000069  56.53999710
C    21.77999878  12.79000092  57.39999771
C    20.45000076  12.43999958  57.02000046
C    16.31999969  11.71000004  56.13999939
C    15.65000057  12.22000027  57.29000092
C    14.27000046  12.35999966  57.30999756
C    24.20000076  13.02000046  56.93000031
H    24.76055336  12.24658108  57.45507431
H    19.69000053  12.88000011  58.93000031
H    18.54999924  11.39999962  54.36999893
H    20.92000008  11.64999962  53.77999878
H    23.22000122  12.01000023  54.40999985
H    21.87999916  13.05999947  58.43999863
H    13.80000019  12.46999931  58.27999878
H    24.76000023  13.27000046  56.00999832
H    24.15999985  13.89000034  57.58999634
S    13.12000084  11.05000019  53.70999908
C    10.39000034  10.97000027  54.47000122
C    11.69999981  11.31000042  54.73999786
C    12.11999989  11.94000053  55.96000290
C    11.14999962  12.09000015  56.91999817
C     9.81000042  11.69000053  56.70000076
C     8.84000015  11.67000008  57.74000168
C     7.55000019  11.28999901  57.45999908
C     7.16000032  10.85999966  56.16000366
C     8.06999969  10.67999935  55.13999939
C     9.39999962  11.03999996  55.47999954
C    13.55999947  12.09000015  56.12999725
C    14.22999954  11.57999992  54.99000168
C    15.59000015  11.28999901  55.01999664
C     5.72000027  10.44999981  55.93000031
H     5.28583288  10.91975403  55.04743195
H    10.18000031  10.54999924  53.48999786
H    11.39000034  12.43999958  57.93000031
H     9.19999981  11.92999935  58.74000168
H     6.84999990  11.23999977  58.27999878
H     7.72000027  10.36999893  54.15999985
H    16.15999985  10.93000031  54.15999985
H     5.15999985  10.76000023  56.81999969
H     5.68000031   9.35999966  55.83000183
S    13.30000019   8.78999996  50.79999924
C    10.65000057   8.42000008  51.62000275
C    11.97999954   8.19999981  51.84000015
C    12.53000069   7.51999950  52.97999954
C    11.59999943   7.09000015  53.89999771
C    10.21000004   7.23000002  53.64999771
C     9.26000023   6.80999994  54.61999893
C     7.90999985   6.80000019  54.31999969
C     7.40999985   7.44000006  53.15000153
C     8.27000046   8.10999966  52.30999756
C     9.67000008   7.88000011  52.49000168
C    13.97999954   7.69999981  53.09000015
C    14.55000019   8.36999989  51.98999786
C    15.90999985   8.67999935  51.98999786
C     5.92000008   7.63000011  53.06000137
H     5.57873154   7.34560966  52.06463242
H    10.26000023   8.98999977  50.77999878
H    11.90999985   6.58999968  54.80999756
H     9.70000076   6.30999994  55.47999954
H     7.28999996   6.19000006  54.95999908
H     7.94000053   8.67999935  51.45000076
H    16.36999893   9.10000038  51.10000229
H     5.44000053   7.13000011  53.90999603
H     5.66999960   8.69000053  53.18000031
S    17.20000076   7.40000010  55.56000137
C    19.88000107   7.96000004  54.86999893
C    18.53000069   8.06999969  54.59999847
C    18.00000000   8.76999950  53.47000122
C    18.89000130   9.39999962  52.63000107
C    20.29000092   9.22000027  52.76000214
C    21.24000168   9.72000027  51.83000183
C    22.57999802   9.56999969  52.09000015
C    23.03999901   8.90999985  53.26000214
C    22.17000008   8.38999939  54.19000244
C    20.78000069   8.53999996  53.93000031
C    16.59000015   8.52000046  53.20999908
C    16.01000023   7.86999989  54.33000183
C    14.65999985   7.53999996  54.29999924
C    24.51999855   8.78999996  53.50000000
H    24.83160019   8.59879112  54.52686310
H    20.22999954   7.50999975  55.79000092
H    18.45000076  10.00000000  51.84000015
H    20.81999969  10.34000015  51.04999924
H    23.23999786  10.01000023  51.33999634
H    22.46999931   7.96999979  55.14999771
H    14.17000008   7.26999998  55.24000168
H    24.94999886   9.72000027  53.09999847
H    24.90999985   8.00000000  52.84999847
