96

S    16.39999962  12.51000023  59.31000137
C    19.12999916  12.61999989  58.61000061
C    17.85000038  12.20999908  58.34000015
C    17.47999954  11.69000053  57.05999756
C    18.44000053  11.46999931  56.09000397
C    19.71999931  12.05999947  56.25999832
C    20.78000069  11.94000053  55.31999969
C    22.06999969  12.30999947  55.61999893
C    22.32000160  12.93000031  56.86999893
C    21.34000015  13.17999935  57.80000305
C    20.03999901  12.65999985  57.51999664
C    16.03000069  11.61999893  56.86999893
C    15.29000092  12.09000015  57.97999954
C    13.90999985  12.13999939  57.90999985
C    23.72999954  13.34000015  57.25000000
H    24.30092430  12.68343830  57.90655899
H    19.45000076  13.02000046  59.56999969
H    18.15999985  10.95999908  55.17000198
H    20.52999878  11.43000031  54.38999939
H    22.92000008  12.00000000  55.01999664
H    21.64999962  13.45999908  58.80000305
H    13.31999969  12.34000015  58.80000305
H    24.37000084  13.50999928  56.38000107
H    23.71999931  14.37000084  57.62000275
S    12.89999962  11.03000069  54.27000046
C    10.15999985  11.03999996  54.78000259
C    11.42000008  11.43000031  55.15999603
C    11.76000023  11.79999924  56.50000000
C    10.72000027  11.92999935  57.41000366
C     9.39000034  11.61000061  57.02999878
C     8.36999989  11.69000053  58.02000046
C     7.07999992  11.32999992  57.69000244
C     6.76000023  10.77999973  56.42000198
C     7.73000002  10.81999969  55.44000244
C     9.07999992  11.21999931  55.68000031
C    13.19000053  11.84999943  56.73999786
C    13.96999931  11.51999950  55.59999847
C    15.34999943  11.39999962  55.66999817
C     5.38999987  10.21000004  56.11000061
H     4.87040138  10.77230549  55.33415985
H    10.06000042  10.57000065  53.80000305
H    11.02000046  12.13000107  58.43000031
H     8.67000008  12.06999969  58.97999573
H     6.30999994  11.33999920  58.44999695
H     7.55000019  10.51000023  54.41999817
H    15.84000015  10.93999958  54.80999756
H     4.80999994  10.13000011  57.02999878
H     5.61999989   9.19999981  55.75000000
S    17.18000031  12.65999985  52.97999954
C    19.78000069  13.15999985  52.27000427
C    18.54999924  12.71999931  51.86000061
C    18.20000076  12.27000046  50.54000092
C    19.19999886  12.23000050  49.59000015
C    20.52000046  12.53999901  50.00000000
C    21.60000038  12.43999958  49.06999969
C    22.89999962  12.71000004  49.41999817
C    23.16999817  13.12999916  50.75000000
C    22.17000008  13.31999969  51.66999817
C    20.81999969  13.02000046  51.31999969
C    16.76000023  12.11999989  50.41999817
C    16.06999969  12.39999962  51.63000107
C    14.68000031  12.53999901  51.68000031
C    24.60000038  13.38999939  51.18000031
H    24.87266541  12.64375782  51.92624283
H    20.00999832  13.48000050  53.29000092
H    19.04000092  11.72999954  48.63999939
H    21.42000008  12.15000057  48.04000092
H    23.64000130  12.69000053  48.62999725
H    22.37999916  13.68999958  52.67000198
H    14.23999977  12.74000072  52.64999771
H    25.22000122  13.22999954  50.28999710
H    24.82000160  14.44000053  51.43000031
S    13.66000080  11.30000019  48.00000000
C    10.98999977  11.07999992  48.68000031
C    12.25000000  11.51000023  49.05000305
C    12.53000069  11.95000076  50.38999939
C    11.52999973  12.10000038  51.32999802
C    10.21000004  11.78999996  50.93000031
C     9.09000015  12.10000038  51.75000000
C     7.79999971  11.84000015  51.35000229
C     7.55000019  11.11999989  50.15999603
C     8.61999989  10.85000038  49.33000183
C     9.94999981  11.25000000  49.61999893
C    13.96000004  12.15000057  50.54000092
C    14.67000008  11.69000053  49.40000153
C    16.05999947  11.61999893  49.31999969
C     6.19999981  10.47999954  49.88999939
H     5.67734957  11.05276775  49.12392426
H    10.65000057  10.67999935  47.72999573
H    11.72000027  12.56000042  52.29999924
H     9.19000053  12.48999977  52.76000214
H     6.98000002  12.11999989  52.01000214
H     8.52000046  10.14000034  48.50999832
H    16.59000015  11.31999969  48.41999817
H     5.59000015  10.50000000  50.79999924
H     6.39999962   9.43000031  49.62999725
