96

S    16.27000046  12.36999989  58.85000229
C    18.97999954  12.38999939  58.09999847
C    17.69000053  11.97999954  57.85999680
C    17.35999870  11.38000011  56.60999680
C    18.34000015  11.03999996  55.68999863
C    19.69000053  11.36999989  55.96000290
C    20.72999954  11.11999989  55.02999878
C    22.04999924  11.39999962  55.31000137
C    22.37999916  11.98999977  56.55000305
C    21.40000153  12.10999966  57.51999664
C    20.02000046  12.00000000  57.21000290
C    15.92000008  11.46999931  56.39999771
C    15.19000053  11.97999954  57.50000000
C    13.80000019  12.02999973  57.60000229
C    23.81999969  12.30999947  56.86999893
H    24.33891487  11.52807426  57.42445374
H    19.17000008  12.94999981  59.01000214
H    17.94999886  10.62000084  54.77000427
H    20.42000008  10.71000004  54.06999969
H    22.82999992  11.13000011  54.61000061
H    21.71999931  12.35000038  58.53000259
H    13.35999966  12.32999992  58.54999924
H    24.41999817  12.76999950  56.06999969
H    23.74000168  13.12000084  57.60000229
S    12.72999954  10.42000008  54.10999680
C    10.01000023  10.47999954  54.68999863
C    11.30000019  10.70000076  55.12000275
C    11.63000011  11.31000042  56.37000275
C    10.55999947  11.61999893  57.18000031
C     9.21000004  11.33999920  56.84999847
C     8.14000034  11.38000011  57.77999878
C     6.85999966  11.05999947  57.39999771
C     6.61000013  10.73999977  56.04000092
C     7.59000015  10.71000004  55.07999802
C     8.93000031  10.93999958  55.48999786
C    13.05999947  11.59999943  56.49000168
C    13.76999950  11.06999969  55.38999939
C    15.15999985  11.02000046  55.31000137
C     5.22000027  10.21000004  55.76000214
H     4.77287388  10.75648785  54.92962265
H     9.80000019   9.92999935  53.77999878
H    10.71000004  12.01000023  58.18999863
H     8.48999977  11.85999966  58.68999863
H     6.07999992  10.98000050  58.15999985
H     7.44999981  10.34999943  54.06000137
H    15.60999966  10.62999916  54.40999985
H     4.48000002  10.18000031  56.56999969
H     5.38000011   9.19000053  55.38999939
S    13.85000038   8.69999981  51.12999725
C    11.18000031   7.97999954  51.72000122
C    12.53000069   7.90999985  52.00000000
C    12.97999954   7.23000002  53.18000031
C    12.07999992   6.58999968  54.01000214
C    10.69000053   6.71999979  53.77999878
C     9.68999958   6.21999979  54.66999817
C     8.36000061   6.30999994  54.33000183
C     7.88000011   7.05999947  53.22000122
C     8.84000015   7.64999962  52.42000198
C    10.22999954   7.42000008  52.61000061
C    14.39000034   7.48000050  53.41999817
C    15.01000023   8.23000050  52.38999939
C    16.35000038   8.56999969  52.51999664
C     6.42000008   7.23000002  52.88000107
H     6.02182722   6.75361490  51.98411179
H    10.82999992   8.52999973  50.84999847
H    12.46999931   6.01999998  54.86000061
H    10.05000019   5.73999977  55.56999969
H     7.64999962   5.73000002  54.91000366
H     8.56000042   8.27000046  51.58000183
H    16.77000046   9.06999969  51.65999985
H     5.84000015   6.90999985  53.75000000
H     6.17999983   8.28999996  52.70999908
S    17.67000008   6.81999969  55.84000015
C    20.38999939   7.22000027  55.00999832
C    19.03000069   7.39000034  54.85000229
C    18.55999947   8.01999950  53.66000366
C    19.40999985   8.50000000  52.68000031
C    20.79000092   8.21000004  52.81000137
C    21.67000008   8.86999989  51.90999985
C    23.02999878   8.76999950  52.05999756
C    23.52999878   8.38000011  53.33000183
C    22.70000076   7.72000027  54.20999908
C    21.31000137   7.55999994  53.99000168
C    17.11000061   8.09000015  53.59000397
C    16.48999977   7.30999994  54.61000061
C    15.14000034   7.02000046  54.51000214
C    24.89999962   8.85999966  53.77999878
H    25.34982300   8.21739578  54.53684616
H    20.82999992   6.80999994  55.91999817
H    19.11000061   8.94999981  51.72999954
H    21.24000168   9.40999985  51.06999969
H    23.77000046   9.43000031  51.62000275
H    23.01000214   7.44000006  55.21999741
H    14.52000046   6.51999998  55.25000000
H    24.75000000   9.85000038  54.22999954
H    25.55999947   8.92000008  52.90999985
