96

S    17.09000015  12.28000069  58.96999741
C    19.78000069  12.43000031  58.30999756
C    18.51000023  12.05000019  57.94000244
C    18.22000122  11.51999950  56.63999939
C    19.29000092  11.33999920  55.77999878
C    20.61000061  11.71000004  56.11999893
C    21.65999985  11.68000031  55.17000198
C    22.95999908  11.89000034  55.59000015
C    23.25000000  12.23000050  56.93000031
C    22.20999908  12.57999992  57.76000214
C    20.88000107  12.17000008  57.45999908
C    16.77999878  11.49000072  56.39999771
C    16.07999992  11.87999916  57.56999969
C    14.68999958  11.85999966  57.65999603
C    24.63000107  12.76000023  57.25999832
H    25.04880905  12.31279945  58.16150284
H    19.89999962  12.94999981  59.26000214
H    19.02000046  10.90000057  54.81999969
H    21.38000107  11.51000023  54.13000107
H    23.75000000  11.76000023  54.85000229
H    22.29999924  13.05999947  58.73000336
H    14.11000061  12.15999985  58.53000259
H    25.34000015  12.82999992  56.42000198
H    24.34999847  13.80000019  57.43000031
S    13.56999969  10.48999977  54.05000305
C    10.86999989  10.65000057  54.79999924
C    12.18999958  10.88000107  55.10000229
C    12.55000019  11.51999950  56.32999802
C    11.56000042  11.80999947  57.25999832
C    10.21000004  11.50000000  57.00000000
C     9.13999939  11.77000046  57.90999985
C     7.82000017  11.49000072  57.61000061
C     7.50000000  10.85000038  56.38999939
C     8.52000046  10.46000004  55.54999924
C     9.84000015  10.98000050  55.70999908
C    13.99000072  11.61000061  56.47999573
C    14.63999939  11.03000069  55.35999680
C    16.03000069  10.95999908  55.34000015
C     6.07999992  10.42000008  56.07999802
H     5.74601793  10.83214760  55.12779617
H    10.62000084   9.98000050  53.97999573
H    11.84999943  12.18999958  58.23999786
H     9.35000038  12.28999996  58.83999634
H     7.11000013  11.77999973  58.36999893
H     8.23999977   9.86999989  54.68000031
H    16.63999939  10.44000053  54.61000061
H     5.36999989  10.62000084  56.90000153
H     6.21000004   9.34000015  55.97000122
S    17.32999992  12.56999969  52.64999771
C    20.00000000  12.68000031  51.90999985
C    18.71999931  12.28000069  51.59000015
C    18.30000114  11.87999916  50.27999878
C    19.29999924  11.79999924  49.33000183
C    20.63999939  12.18000031  49.59999847
C    21.63000107  12.15000057  48.56999969
C    22.93999863  12.31999969  48.95000076
C    23.32999992  12.69000053  50.27000046
C    22.39000130  12.72999954  51.26999664
C    21.02000046  12.55000019  50.93000031
C    16.84999847  11.77000046  50.18000031
C    16.17000008  12.18999958  51.36000061
C    14.78999996  12.25000000  51.45999908
C    24.80999947  12.94000053  50.51000214
H    25.21497345  12.31477928  51.30573654
H    20.25000000  13.04999924  52.90000153
H    19.23999977  11.50000000  48.29000092
H    21.32999802  11.84000015  47.56999969
H    23.68999863  12.07999992  48.20999908
H    22.62000084  12.86999893  52.31999969
H    14.32000065  12.46000099  52.41000366
H    25.39999962  12.84999943  49.59000015
H    24.90999985  13.99000072  50.77999878
S    13.64999962  11.13999939  47.77000046
C    11.00999928  11.02000046  48.39000320
C    12.27000046  11.28999901  48.88000107
C    12.63000011  11.75000000  50.19000244
C    11.56000042  11.97999954  51.03000259
C    10.24000072  11.65999985  50.63999939
C     9.06000042  11.90000057  51.39999771
C     7.78999996  11.54999924  51.02000427
C     7.57999992  10.90999985  49.75999832
C     8.63000011  10.90999985  48.87000275
C     9.96000004  11.10999966  49.34000015
C    14.06999969  11.90999985  50.30000305
C    14.73999977  11.51000023  49.12000275
C    16.11999893  11.39999962  49.03999710
C     6.23000050  10.36999893  49.34000015
H     5.81740570  10.96043682  48.52192307
H    10.80999947  10.65000057  47.38999939
H    11.79999924  12.46000099  51.97999954
H     9.30999947  12.30000019  52.37999725
H     7.03000021  11.56999969  51.79000092
H     8.39999962  10.72999954  47.83000183
H    16.69000053  11.07999992  48.18000031
H     5.63000011  10.34000015  50.26000214
H     6.30999994   9.32999992  49.02000046
