96

S    16.57999992  11.97999954  58.93000031
C    19.29000092  12.38999939  58.26000214
C    18.01000023  12.06999969  57.88000107
C    17.71000099  11.72999954  56.52999878
C    18.77000046  11.63000011  55.65000153
C    20.09000015  11.97000027  56.04000092
C    21.15999985  11.84999943  55.10000229
C    22.46999931  12.03999996  55.47999954
C    22.76000023  12.48000050  56.79999924
C    21.77000046  12.56999969  57.75000000
C    20.40999985  12.35000038  57.38999939
C    16.28999901  11.39999962  56.38999939
C    15.52000046  11.75000000  57.52999878
C    14.14000034  11.84000015  57.61000061
C    24.18999863  12.81000042  57.14000320
H    24.54401588  12.18693161  57.96131897
H    19.44000053  12.71999931  59.27999878
H    18.60999870  11.28000069  54.64000320
H    20.89999962  11.54000092  54.09999847
H    23.29000092  11.94000053  54.77000427
H    22.01999855  13.01000023  58.72000122
H    13.63000011  12.01000023  58.54999924
H    24.84000015  12.65999985  56.26999664
H    24.05999947  13.86999989  57.38999939
S    13.12999916  10.57999992  53.95999908
C    10.44000053  10.34999943  54.78000259
C    11.72999954  10.77000046  55.01999664
C    12.02999973  11.28000069  56.32999802
C    11.06999969  11.56999969  57.29000092
C     9.72999954  11.25000000  56.95999908
C     8.71000004  11.44999981  57.91999817
C     7.44999981  10.95000076  57.65999603
C     7.07999992  10.46000004  56.38000107
C     8.06999969  10.21000004  55.45000076
C     9.42000008  10.55999947  55.73999786
C    13.47000027  11.46999931  56.44000244
C    14.19999981  11.05999947  55.30000305
C    15.59000015  10.95000076  55.27000046
C     5.66999960   9.98999977  56.11999893
H     5.19169807  10.48971844  55.27761459
H    10.24000072   9.88000011  53.81999969
H    11.36999989  11.84999943  58.29000092
H     9.00000000  11.89000034  58.87000275
H     6.63999987  11.14999962  58.34999847
H     7.79999971   9.92000008  54.43999863
H    16.11999893  10.65999985  54.36999893
H     5.13000011  10.10000038  57.05999756
H     5.80999947   8.92000008  55.89000320
S    13.22000027   8.60999966  50.89000320
C    10.53999996   7.96000004  51.59999847
C    11.89000034   7.85000038  51.79999924
C    12.46000099   7.16000032  52.90999985
C    11.56000042   6.58999968  53.79000092
C    10.15999985   6.71000004  53.63999939
C     9.25000000   6.15999985  54.58000183
C     7.88999987   6.21000004  54.41999817
C     7.32999992   6.93000031  53.33000183
C     8.19000053   7.51999950  52.42000198
C     9.59999943   7.44000006  52.54000092
C    13.89999962   7.26999998  53.09000015
C    14.45000076   8.02999973  52.02999878
C    15.75000000   8.52000046  52.02999878
C     5.84000015   6.93000031  53.06000137
H     5.42684269   6.73766804  52.06984711
H    10.19999981   8.56999969  50.77000046
H    11.87999916   5.97000027  54.62999725
H     9.71000004   5.64000034  55.41999817
H     7.20000029   5.61999989  55.00999832
H     7.79999971   8.00000000  51.52999878
H    16.10999870   9.25000000  51.31000137
H     5.55999994   6.05999994  53.66000366
H     5.32999992   7.76000023  53.56999969
S    17.20000076   6.83000040  55.34000015
C    19.78999901   7.72000027  54.86999893
C    18.46999931   7.73000002  54.48999786
C    17.97999954   8.42000008  53.34000015
C    18.84000015   9.11000061  52.50000000
C    20.20999908   9.17000008  52.85999680
C    21.24000168   9.70000076  52.04000092
C    22.56999969   9.43000031  52.27000427
C    23.01000214   8.69999981  53.40999985
C    22.06000137   8.25000000  54.29000092
C    20.66999817   8.43999958  54.01000214
C    16.56999969   8.14999962  53.11000061
C    16.00000000   7.36000013  54.15000153
C    14.70999908   6.85999966  54.15999985
C    24.46000099   8.36000061  53.63999939
H    24.84506798   8.75219917  54.58127594
H    20.26000023   7.22000027  55.70999908
H    18.50000000   9.46000004  51.52999878
H    20.90999985  10.01999950  51.04999924
H    23.31999969   9.63999939  51.51000214
H    22.23999977   7.57000017  55.12000275
H    14.28999996   6.25999975  54.97000122
H    25.10999870   8.65999985  52.81000137
H    24.51999855   7.26999998  53.63999939
