96

S    16.65999985  12.46999931  58.94000244
C    19.36000061  12.53999901  58.26000214
C    18.06999969  12.22000027  57.90000153
C    17.72999954  11.63000011  56.63000107
C    18.72999954  11.42000008  55.70000076
C    20.05000114  11.80999947  56.00999832
C    21.14999962  11.68000031  55.12000275
C    22.42000198  12.05999947  55.50000000
C    22.76000023  12.53000069  56.79000092
C    21.70999908  12.71000004  57.67000198
C    20.38000107  12.41000080  57.28000259
C    16.28999901  11.47999954  56.46999741
C    15.60999966  12.00000000  57.60000229
C    14.25000000  12.27000046  57.56999969
C    24.18000031  12.94999981  57.09999847
H    24.60713005  12.32353973  57.88307571
H    19.62000084  12.76000023  59.29000092
H    18.46999931  11.00000000  54.72999954
H    20.96999931  11.25000000  54.13999939
H    23.23999786  11.85999966  54.80999756
H    21.93000031  13.03999996  58.68999863
H    13.76999950  12.53000069  58.50999832
H    24.70000076  13.02000046  56.14999771
H    24.21999931  13.94999981  57.55000305
S    13.09999943  10.95999908  53.99000168
C    10.40999985  10.92000008  54.65000153
C    11.69999981  11.17000008  55.06000137
C    12.03999996  11.71000004  56.35000229
C    11.02000046  11.82000065  57.27000427
C     9.68000031  11.51999950  56.91999817
C     8.60999966  11.71000004  57.84000015
C     7.30000019  11.42000008  57.51999664
C     7.04999971  10.72000027  56.31000137
C     8.06999969  10.48999977  55.41999817
C     9.38000011  11.00000000  55.61999893
C    13.48000050  11.87999916  56.46999741
C    14.17000008  11.36000061  55.34000015
C    15.53999996  11.11999989  55.34000015
C     5.65000010  10.31999969  55.89000320
H     5.29479122  10.88833332  55.03039551
H    10.24000072  10.67000008  53.60000229
H    11.14999962  12.10000038  58.31999969
H     8.86999989  11.92000008  58.87000275
H     6.46000004  11.54999924  58.20000076
H     7.92000008   9.85999966  54.54000092
H    16.13999939  10.81999969  54.47999954
H     4.98000002  10.48999977  56.73999786
H     5.65000010   9.26999950  55.59000015
S    13.12000084   8.97000027  50.91999817
C    10.43000031   8.36000061  51.60999680
C    11.77999973   8.19999981  51.79999924
C    12.25000000   7.48000050  52.95000076
C    11.35000038   7.03000021  53.89999771
C     9.96000004   7.21000004  53.73000336
C     8.97999954   6.63999987  54.59999847
C     7.65999985   6.85999966  54.31999969
C     7.17000008   7.59999990  53.20999908
C     8.09000015   8.01000023  52.28000259
C     9.48000050   7.88999987  52.56000137
C    13.67000008   7.75000000  53.16999817
C    14.29999924   8.55000019  52.18999863
C    15.65000057   8.86999989  52.15000153
C     5.69999981   7.86000013  52.95999908
H     5.37247610   7.24767351  52.11983109
H    10.10000038   9.02999973  50.81999969
H    11.68000031   6.47000027  54.77000427
H     9.26000023   6.00000000  55.44000244
H     6.94999981   6.35999966  54.97000122
H     7.77999973   8.48999977  51.35000229
H    16.10000038   9.30999947  51.26999664
H     5.13999987   7.50999975  53.83999634
H     5.42999983   8.92000008  52.90000153
S    16.98999977   7.18999958  55.47000122
C    19.67000008   7.69999981  54.81999969
C    18.32999992   7.85000038  54.52999878
C    17.87999916   8.52999973  53.36000061
C    18.79999924   9.13000011  52.52999878
C    20.15999985   8.80999947  52.71999741
C    21.14999962   9.52000046  51.98999786
C    22.50000000   9.30000019  52.18999863
C    22.96999931   8.67999935  53.37999725
C    22.01999855   8.07999992  54.16999817
C    20.63999939   8.03999996  53.85000229
C    16.43000031   8.43000031  53.22999954
C    15.80000019   7.67000008  54.25000000
C    14.45000076   7.31999969  54.23999786
C    24.40999985   8.27000046  53.55999756
H    24.82345009   8.54800892  54.52946854
H    20.13999939   7.26999998  55.70999908
H    18.54999924   9.72000027  51.63999939
H    20.69999886  10.08999920  51.18000031
H    23.15999985   9.56999969  51.38000107
H    22.13999939   7.57000017  55.13000107
H    14.15999985   6.67000008  55.06000137
H    25.03000069   8.82000065  52.84000015
H    24.47999954   7.20000029  53.29999924
