96

S    16.10999870  12.25000000  58.75000000
C    18.75000000  12.50000000  58.02999878
C    17.56000137  11.85999966  57.78999710
C    17.21999931  11.28999901  56.52000046
C    18.15000153  11.17000008  55.51000214
C    19.45999908  11.64000034  55.79999924
C    20.52000046  11.56000042  54.86999893
C    21.78999901  11.98999977  55.18000031
C    22.07999992  12.69000053  56.38000107
C    21.07000160  12.79999924  57.30999756
C    19.75000000  12.34000015  57.02999878
C    15.77999973  11.23000050  56.36000061
C    15.01999950  11.72999954  57.44999695
C    13.63000011  11.68000031  57.52999878
C    23.47999954  13.07000065  56.79999924
H    23.87785912  12.35243320  57.51756668
H    18.94000053  12.98999977  58.97999573
H    18.02999878  10.65000057  54.55999756
H    20.39999962  11.10000038  53.88999939
H    22.49000168  11.82000065  54.36999893
H    21.09999847  13.00000000  58.36999893
H    13.10999966  11.92000008  58.44999695
H    24.09000015  13.10999966  55.89000320
H    23.23999786  13.97999954  57.37999725
S    12.64000034  10.85999966  53.79000092
C     9.94999981  10.44000053  54.34999847
C    11.19999981  10.76000023  54.81999969
C    11.49000072  11.17000008  56.16000366
C    10.46000004  11.36999989  57.05999756
C     9.11999989  11.18000031  56.65000153
C     8.01000023  11.19999981  57.54000092
C     6.72999954  10.95999908  57.08000183
C     6.57000017  10.52999973  55.73999786
C     7.63000011  10.29999924  54.88999939
C     8.93999958  10.70000076  55.30000305
C    12.92000008  11.33999920  56.37000275
C    13.68999958  11.10000038  55.20000076
C    15.06999969  10.90999985  55.19000244
C     5.18000031  10.18000031  55.26000214
H     4.62054968  10.99439049  54.79969406
H     9.84000015  10.13000011  53.30999756
H    10.64000034  11.51999950  58.11999893
H     8.28999996  11.26999950  58.59000397
H     5.93999958  10.78999996  57.80000305
H     7.57999992   9.72000027  53.97999573
H    15.54999924  10.51000023  54.31000137
H     4.57999992   9.67000008  56.02000427
H     5.27999973   9.39999962  54.50000000
S    13.66000080   8.60999966  51.02000427
C    10.98999977   8.03999996  51.51000214
C    12.30000019   7.92999983  51.93000031
C    12.76999950   7.37999964  53.16999817
C    11.82000065   6.81999969  54.00000000
C    10.47999954   6.81999969  53.54999924
C     9.44000053   6.26999950  54.36000061
C     8.10000038   6.30999994  54.06000137
C     7.64999962   6.90000010  52.84999847
C     8.63000011   7.36000013  52.01000214
C    10.01999950   7.39000034  52.31999969
C    14.19999981   7.53999996  53.36999893
C    14.81999969   8.27000046  52.31999969
C    16.17000008   8.56000042  52.23999786
C     6.19000006   7.09000015  52.51999664
H     5.74821520   6.13517570  52.23497772
H    10.72000027   8.63000011  50.63999939
H    12.09000015   6.44999981  54.99000168
H     9.80000019   5.73999977  55.24000168
H     7.40999985   5.96000004  54.81999969
H     8.46000004   7.88000011  51.05999756
H    16.65999985   8.90999985  51.33999634
H     5.60999966   7.50000000  53.36000061
H     6.15999985   7.78999996  51.68000031
S    17.48999977   7.13000011  55.72000122
C    20.17000008   7.73999977  55.08999634
C    18.82999992   7.82000017  54.79000092
C    18.39999962   8.34000015  53.52000427
C    19.36000061   8.69999981  52.60000229
C    20.75000000   8.60999966  52.84999847
C    21.68999863   8.97999954  51.84999847
C    23.01000214   8.84000015  52.22000122
C    23.45000076   8.28999996  53.46000290
C    22.53999901   7.95000029  54.43000031
C    21.15999985   8.10000038  54.13999939
C    16.95000076   8.23999977  53.36000061
C    16.34000015   7.53999996  54.43000031
C    15.01000023   7.16000032  54.45000076
C    24.90999985   8.01999950  53.74000168
H    25.33778191   8.85417080  54.29611588
H    20.38000107   7.32999992  56.06999969
H    18.96000099   9.11999989  51.66999817
H    21.51000023   9.36999989  50.86000061
H    23.81000137   9.07999992  51.52999878
H    22.79999924   7.40999985  55.34000015
H    14.56999969   6.72999954  55.34999847
H    25.45000076   7.92999983  52.78999710
H    24.84999847   7.11000013  54.36000061
