96

S    17.01000023  12.51000023  58.79000092
C    19.70000076  12.64000034  58.01000214
C    18.39999962  12.30999947  57.70000076
C    18.02000046  11.87000084  56.38999939
C    18.98999977  11.75000000  55.40999985
C    20.35000038  11.94000053  55.73999786
C    21.40000153  11.82999992  54.78000259
C    22.70000076  12.10000038  55.14999771
C    23.03999901  12.67000008  56.39999771
C    22.04999924  12.81000042  57.35000229
C    20.69999886  12.50000000  57.02000046
C    16.56999969  11.90000057  56.29000092
C    15.85999966  12.20000076  57.48000336
C    14.47000027  12.20999908  57.56999969
C    24.43000031  13.21000004  56.63999939
H    24.94220924  12.61242390  57.39408493
H    19.98999977  12.97999954  59.00000000
H    18.73999977  11.54999924  54.36999893
H    21.12999916  11.52999973  53.76999664
H    23.45999908  12.05000019  54.36999893
H    22.29999924  13.02999973  58.37999725
H    13.96999931  12.57999992  58.46000290
H    25.06000137  13.21000004  55.73999786
H    24.34999847  14.27000046  56.90000153
S    13.31999969  10.98999977  54.01000214
C    10.60999966  10.60999966  54.78000259
C    11.89000034  11.03000069  55.06000137
C    12.28999996  11.56999969  56.31999969
C    11.31000042  11.90999985  57.22999954
C     9.98999977  11.43000031  57.00000000
C     8.90999985  11.75000000  57.85999680
C     7.57999992  11.61999893  57.54000092
C     7.21000004  11.00999928  56.31999969
C     8.22000027  10.59000015  55.47999954
C     9.59999943  10.85999966  55.73999786
C    13.73000050  11.77999973  56.46999741
C    14.45000076  11.54000092  55.27000046
C    15.82999992  11.54999924  55.14999771
C     5.77000046  10.67000008  56.00999832
H     5.24995756  11.31827259  55.30473328
H    10.29999924  10.29000092  53.79000092
H    11.44999981  12.44999981  58.15999985
H     9.22000027  12.17000008  58.81999969
H     6.76999998  11.84999943  58.22999954
H     7.96999979  10.11000061  54.54000092
H    16.31999969  11.31000042  54.20999908
H     5.22000027  10.82999992  56.95000076
H     5.69999981   9.59999943  55.79000092
S    13.81000042   9.22000027  51.04999924
C    11.11999989   8.52999973  51.72000122
C    12.46999931   8.46000004  51.95000076
C    13.00000000   7.76999998  53.08000183
C    12.05999947   7.23000002  53.95000076
C    10.65999985   7.26999998  53.75000000
C     9.78999996   6.65000010  54.69999695
C     8.43999958   6.67999983  54.47999954
C     7.90999985   7.49000025  53.43999863
C     8.75000000   8.05999947  52.50999832
C    10.15999985   7.94000053  52.57999802
C    14.42000008   8.00000000  53.29999924
C    15.01999950   8.76000023  52.25999832
C    16.36999893   9.11000061  52.22000122
C     6.44000006   7.82999992  53.46000290
H     5.89266348   7.32531357  52.66387939
H    10.80999947   9.06999969  50.81999969
H    12.43000031   6.67999983  54.80999756
H    10.21999931   6.17999983  55.59000015
H     7.81000042   6.17999983  55.21999741
H     8.34000015   8.65999985  51.70000076
H    16.73999977   9.68000031  51.37000275
H     5.93999958   7.60999966  54.41999817
H     6.40999985   8.92000008  53.41999817
S    17.71999931   7.68000031  55.61000061
C    20.42000008   8.14000034  54.92000198
C    19.07999992   8.34000015  54.68000031
C    18.60999870   8.90999985  53.44999695
C    19.55999947   9.35999966  52.55000305
C    20.94000053   9.17000008  52.76000214
C    21.88999939   9.55000019  51.77000046
C    23.22000122   9.48000050  52.09000015
C    23.72999954   8.89000034  53.27999878
C    22.79000092   8.46000004  54.19000244
C    21.38999939   8.60999966  54.00000000
C    17.19000053   8.64999962  53.25000000
C    16.54000092   7.96000004  54.31000137
C    15.21999931   7.55000019  54.36000061
C    25.20999908   8.69999981  53.52000427
H    25.46590805   8.91325665  54.55785370
H    20.68000031   7.73000002  55.89000320
H    19.27999878   9.85999966  51.62000275
H    21.55999947  10.01000023  50.84000015
H    24.03000069   9.81999969  51.44000244
H    23.15999985   7.92999983  55.06999969
H    14.85000038   6.88000011  55.13000107
H    25.71000099   9.40999985  52.84999847
H    25.48999977   7.69000006  53.20999908
