96

S    16.50000000  12.07999992  58.67000198
C    19.22999954  11.92000008  58.02999878
C    17.90999985  11.79999924  57.63999939
C    17.59000015  11.49000072  56.27999878
C    18.61999893  11.30000019  55.37000275
C    19.96999931  11.52999973  55.72000122
C    21.00000000  11.56999969  54.72999954
C    22.29000092  11.89000034  55.08999634
C    22.60000038  12.17000008  56.45000076
C    21.61999893  12.23000050  57.41000366
C    20.28000069  11.85999966  57.08000183
C    16.15999985  11.42000008  56.00999832
C    15.52000046  11.68000031  57.25000000
C    14.14000034  11.84000015  57.29000092
C    24.01000023  12.56000042  56.84999847
H    24.42952156  11.87028027  57.58238220
H    19.40999985  12.23000050  59.05000305
H    18.48999977  10.98000050  54.34000015
H    20.76999855  11.32999992  53.69999695
H    23.00000000  12.05999947  54.27999878
H    21.76000214  12.61000061  58.41999817
H    13.63000011  12.09000015  58.20999908
H    24.67000008  12.60000038  55.97000122
H    23.88000107  13.55000019  57.28000259
S    12.93000031  11.00999928  53.57999802
C    10.21999931  10.90000057  54.36999893
C    11.51000023  11.30000019  54.61000061
C    11.92999935  11.50000000  55.97000122
C    10.93000031  11.54999924  56.93000031
C     9.55999947  11.39000034  56.63000107
C     8.56000042  11.51000023  57.63999939
C     7.23999977  11.23000050  57.36999893
C     6.89000034  10.75000000  56.07999802
C     7.79999971  10.62000084  55.06000137
C     9.15999985  10.93000031  55.31999969
C    13.35999966  11.67000008  56.13999939
C    14.02999973  11.36000061  54.93000031
C    15.40999985  11.23000050  54.84000397
C     5.47999954  10.24000072  55.87999725
H     5.05378485  10.88642693  55.11281204
H     9.88000011  10.51000023  53.41999817
H    11.19999981  11.85999966  57.94000244
H     8.93000031  11.77000046  58.62999725
H     6.44999981  11.19999981  58.11999893
H     7.50999975  10.27999973  54.06999969
H    15.85000038  11.02000046  53.88000107
H     4.76000023  10.26000023  56.70999908
H     5.55000019   9.26000023  55.38999939
S    13.88000011   8.85000038  50.83000183
C    11.30000019   8.23999977  51.38999939
C    12.60000038   8.13000011  51.81999969
C    12.98999977   7.59999990  53.09999847
C    12.00000000   7.00000000  53.85000229
C    10.64000034   7.07999992  53.47000122
C     9.61999989   6.70000029  54.38999939
C     8.30000019   7.02000046  54.18000031
C     7.92000008   7.73000002  53.00000000
C     8.90999985   8.05000019  52.09999847
C    10.27999973   7.68000031  52.21000290
C    14.42999935   7.72000027  53.22000122
C    15.01000023   8.45000076  52.14000320
C    16.36999893   8.75000000  52.16999817
C     6.48999977   8.14999962  52.76000214
H     6.04879999   7.60205793  51.92741394
H    11.06999969   8.86999989  50.54000092
H    12.25000000   6.47000027  54.77000427
H     9.96000004   6.26999950  55.33000183
H     7.53000021   6.84999990  54.93000031
H     8.69000053   8.59000015  51.18000031
H    16.67000008   9.38000011  51.33999634
H     5.92000008   7.82000017  53.63999939
H     6.32000017   9.21000004  52.54000092
S    17.73999977   7.11999989  55.51000214
C    20.40999985   7.76000023  54.84000397
C    19.05999947   7.82999992  54.55999756
C    18.63999939   8.48999977  53.36000061
C    19.54000092   9.00000000  52.44999695
C    20.93000031   8.85999966  52.70000076
C    21.84999847   9.50000000  51.83000183
C    23.19000053   9.35999966  52.11999893
C    23.65999985   8.73999977  53.30999756
C    22.77000046   8.17000008  54.19000244
C    21.38000107   8.21000004  53.89999771
C    17.20000076   8.36999989  53.22999954
C    16.56999969   7.67000008  54.29000092
C    15.21000004   7.35000038  54.31999969
C    25.05000114   9.03999996  53.82999802
H    25.25570679   8.42997360  54.70957184
H    20.79999924   7.30999994  55.73999786
H    19.22000122   9.38000011  51.47999573
H    21.45999908   9.96999931  50.93000031
H    23.88000107   9.98000050  51.55000305
H    23.13999939   7.88000011  55.17000198
H    14.70000076   6.88000011  55.14999771
H    25.17000008  10.08999920  54.12000275
H    25.72000122   8.85999966  52.97999954
