96

S    16.40999985  12.63000011  58.81999969
C    19.19999886  12.64999962  58.18000031
C    17.87999916  12.43999958  57.84999847
C    17.52000046  11.87999916  56.58000183
C    18.52000046  11.54999924  55.68000031
C    19.85000038  11.98999977  55.90000153
C    20.88999939  11.84999943  54.93999863
C    22.17000008  12.31999969  55.15999603
C    22.55000114  12.69999981  56.47999573
C    21.57999992  12.79000092  57.44999695
C    20.20999908  12.50000000  57.19999695
C    16.10999870  11.57999992  56.39999771
C    15.36000061  12.11999989  57.48000336
C    13.96999931  12.15999985  57.47000122
C    23.92000008  13.28999996  56.75000000
H    24.51792145  12.62801647  57.37639236
H    19.48999977  12.89999962  59.20000076
H    18.25000000  11.10000038  54.73999786
H    20.65999985  11.51999950  53.93000031
H    22.82999992  12.43999958  54.31000137
H    21.81999969  13.32999992  58.36000061
H    13.36999989  12.64000034  58.22999954
H    24.43000031  13.48000050  55.79999924
H    23.92999840  14.29999924  57.19999695
S    12.98999977  10.85000038  53.83999634
C    10.26000023  10.71000004  54.54999924
C    11.54999924  11.06999969  54.85000229
C    11.85999966  11.64999962  56.11999893
C    10.86999989  11.82000065  57.08000183
C     9.53999996  11.46000004  56.77000046
C     8.56999969  11.51999950  57.81000137
C     7.26000023  11.31000042  57.43000031
C     6.90999985  10.90999985  56.11000061
C     7.85000038  10.65000057  55.14999771
C     9.19999981  11.00000000  55.45000076
C    13.30000019  11.72000027  56.31999969
C    14.04999924  11.32999992  55.19000244
C    15.43000031  11.18000031  55.24000168
C     5.44000053  10.71000004  55.79999924
H     5.13397312  11.29358578  54.93173981
H    10.06000042  10.29000092  53.55999756
H    11.21999931  12.05000019  58.08000183
H     8.78999996  11.82999992  58.81999969
H     6.57999992  11.26000023  58.27000046
H     7.63000011  10.26999950  54.15000153
H    15.93000031  10.72999954  54.38999939
H     4.82999992  10.90000057  56.69000244
H     5.31000042   9.64999962  55.58000183
S    17.39999962  12.93000031  52.65999603
C    20.09000015  13.04999924  51.93000031
C    18.79999924  12.71000004  51.59999847
C    18.35000038  12.28999996  50.31000137
C    19.31999969  11.94000053  49.38999939
C    20.66999817  12.23000050  49.68000031
C    21.67000008  11.94000053  48.69999695
C    22.96999931  12.15999985  49.08000183
C    23.39999962  12.79000092  50.27999878
C    22.43999863  13.05999947  51.23000336
C    21.07000160  12.81000042  50.93999863
C    16.90000153  12.28000069  50.13999939
C    16.25000000  12.46999931  51.38000107
C    14.86999989  12.32999992  51.50000000
C    24.84000015  13.20000076  50.43000031
H    25.26437950  12.79683876  51.34949112
H    20.36000061  13.47000027  52.90000153
H    19.02000046  11.46000004  48.46000290
H    21.35999870  11.57999992  47.71999741
H    23.65999985  12.05000019  48.23999786
H    22.73999977  13.30000019  52.25000000
H    14.40000057  12.64999962  52.42000198
H    25.45999908  12.82999992  49.61000061
H    24.80999947  14.29999924  50.38999939
S    13.68000031  11.36000061  47.81000137
C    11.00000000  11.19999981  48.50000000
C    12.28000069  11.54000092  48.88000107
C    12.67000008  11.90999985  50.20000076
C    11.63000011  12.20000076  51.05999756
C    10.27999973  11.94000053  50.70999908
C     9.23999977  12.30999947  51.59999847
C     7.92000008  12.05999947  51.31000137
C     7.57999992  11.50000000  50.05000305
C     8.55000019  11.21999931  49.12000275
C     9.92999935  11.43000031  49.40999985
C    14.11999893  11.94000053  50.38000107
C    14.78000069  11.71000004  49.15000153
C    16.15999985  11.82000065  49.03999710
C     6.15000010  11.10999966  49.72000122
H     5.62915659  11.87342834  49.14207458
H    10.84000015  10.90999985  47.47000122
H    11.92000008  12.63000011  52.01000214
H     9.56999969  12.74000072  52.54000092
H     7.16000032  12.23999977  52.06999969
H     8.32999992  10.92000008  48.09999847
H    16.68000031  11.36999989  48.20000076
H     5.72000027  10.75000000  50.66999817
H     6.25999975  10.24000072  49.06000137
