96

S    16.67000008  11.96000004  58.61000061
C    19.34999847  12.13999939  57.93000031
C    18.06999969  11.84000015  57.52999878
C    17.65999985  11.52999973  56.18999863
C    18.68000031  11.36000061  55.27000046
C    20.03000069  11.54999924  55.65000153
C    21.07000160  11.57999992  54.66999817
C    22.36999893  11.96000004  54.92000198
C    22.63999939  12.56999969  56.17000198
C    21.67000008  12.61999989  57.15000153
C    20.36999893  12.05000019  56.95000076
C    16.21999931  11.47999954  56.00999832
C    15.57999992  11.87000084  57.21000290
C    14.19000053  11.97000027  57.23999786
C    23.97999954  13.17000008  56.51000214
H    24.52803612  12.47249889  57.14344406
H    19.72999954  12.56000042  58.86000061
H    18.53999901  11.35000038  54.19000244
H    20.81999969  11.28999901  53.66000366
H    23.15000153  11.78999996  54.18000031
H    21.88999939  13.12000084  58.08000183
H    13.63999939  12.27000046  58.11999893
H    24.61999893  13.34000015  55.63999939
H    23.78999901  14.15999985  56.93000031
S    12.86999893  10.95999908  53.66000366
C    10.19999981  10.81999969  54.54000092
C    11.54000092  11.00999928  54.81999969
C    11.94000053  11.47999954  56.11000061
C    10.97000027  11.78999996  57.04000092
C     9.59999943  11.50000000  56.81000137
C     8.64999962  11.59000015  57.85999680
C     7.34000015  11.26000023  57.57999802
C     6.93000031  10.84000015  56.29000092
C     7.82000017  10.81999969  55.24000168
C     9.19000053  11.13999939  55.47999954
C    13.40000057  11.56999969  56.16000366
C    14.06000042  11.28000069  54.93999863
C    15.44000053  11.18999958  54.87999725
C     5.55000019  10.25000000  56.12999725
H     4.95151663  10.74873638  55.36764526
H    10.03000069  10.36999893  53.56999969
H    11.28999901  12.10999966  58.02999878
H     8.97999954  12.02000046  58.80000305
H     6.48999977  11.19999981  58.23999786
H     7.42000008  10.55999947  54.26000214
H    15.85000038  10.78999996  53.95999908
H     4.96000004  10.19000053  57.04999924
H     5.73000002   9.22000027  55.77999878
S    16.77000046  12.96000004  52.47000122
C    19.44000053  13.28999996  51.72999954
C    18.20999908  12.72999954  51.46999741
C    17.84000015  12.02000046  50.28999710
C    18.86000061  11.71000004  49.40000153
C    20.19000053  12.06999969  49.71000290
C    21.31000137  11.76000023  48.88999939
C    22.60000038  12.17000008  49.16999817
C    22.79000092  13.03999996  50.27000046
C    21.77999878  13.40000057  51.13999939
C    20.48999977  12.88000011  50.86000061
C    16.40999985  11.90999985  50.05000305
C    15.70000076  12.41000080  51.17000198
C    14.32000065  12.55000019  51.19999695
C    24.20000076  13.55999947  50.47000122
H    24.78472137  13.06797791  51.24724960
H    19.73999977  13.96000004  52.52999878
H    18.61999893  11.10000038  48.53000259
H    21.14000130  11.21999931  47.97000122
H    23.40999985  11.97000027  48.47999954
H    21.93000031  13.94999981  52.06999969
H    13.80000019  12.97000027  52.05999756
H    24.71999931  13.71999931  49.52000046
H    24.05999947  14.60000038  50.79999924
S    13.22999954  11.21999931  47.63000107
C    10.52999973  10.88999939  48.34999847
C    11.82000065  11.23000050  48.69999695
C    12.18000031  11.80999947  49.94999695
C    11.19999981  12.02000046  50.90999985
C     9.86999989  11.67000008  50.58000183
C     8.82000065  11.96000004  51.47999573
C     7.50000000  11.69000053  51.19999695
C     7.13999987  10.98999977  50.00999832
C     8.14999962  10.72999954  49.12000275
C     9.51000023  11.10000038  49.31000137
C    13.60999966  12.05999947  50.10000229
C    14.32999992  11.61999893  48.95999908
C    15.71000004  11.46000004  48.92000198
C     5.69999981  10.77000046  49.61000061
H     5.32422829  11.47191334  48.86554337
H    10.25000000  10.46000004  47.38999939
H    11.31999969  12.53000069  51.86000061
H     9.15999985  12.56999969  52.31999969
H     6.65000010  12.13000107  51.72000122
H     7.82999992  10.26000023  48.18999863
H    16.28000069  11.19999981  48.02999878
H     5.09000015  10.85999966  50.52000046
H     5.64000034   9.72999954  49.27000046
