96

S    16.45000076  12.18999958  58.68999863
C    19.15999985  12.15000057  57.98999786
C    17.86000061  11.87999916  57.65999603
C    17.54999924  11.57999992  56.29000092
C    18.53999901  11.36000061  55.34999847
C    19.88999939  11.61999893  55.70000076
C    20.96999931  11.57999992  54.77000427
C    22.27999878  11.72000027  55.14999771
C    22.57999802  12.22000027  56.44000244
C    21.53000069  12.46999931  57.29999924
C    20.17000008  12.18999958  56.98999786
C    16.10999870  11.42000008  56.18999863
C    15.36999893  11.82000065  57.32999802
C    14.00000000  12.05000019  57.36000061
C    23.95999908  12.64999962  56.88999939
H    24.38675880  12.05965042  57.70084000
H    19.43000031  12.36999989  59.02000046
H    18.22999954  11.00999928  54.36999893
H    20.78000069  11.28999901  53.74000168
H    23.01000214  11.49000072  54.36999893
H    21.68000031  13.07999992  58.18999863
H    13.43000031  12.30999947  58.23999786
H    24.67000008  12.61999989  56.04999924
H    23.98999977  13.71999931  57.11000061
S    12.89999962  10.67999935  53.77999878
C    10.17000008  10.44000053  54.48999786
C    11.44999981  10.82999992  54.79999924
C    11.84000015  11.36000061  56.06999969
C    10.81999969  11.56999969  56.97999954
C     9.46000004  11.26999950  56.70999908
C     8.38999939  11.56999969  57.58999634
C     7.07000017  11.39999962  57.23999786
C     6.76999998  10.85999966  55.96000290
C     7.76000023  10.50000000  55.07999802
C     9.13000011  10.72999954  55.40999985
C    13.27000046  11.57999992  56.25000000
C    13.97999954  11.19999981  55.08999634
C    15.36000061  11.00999928  55.07999802
C     5.29999971  10.59999943  55.70999908
H     4.91584349  10.99838448  54.77095032
H     9.94000053   9.96000004  53.54000092
H    11.03999996  12.02000046  57.94000244
H     8.64999962  12.05999947  58.52000427
H     6.19999981  11.76000023  57.78999710
H     7.50999975  10.03000069  54.13000107
H    15.85000038  10.59999943  54.20000076
H     4.67999983  10.75000000  56.59999847
H     5.36999989   9.52000046  55.52999878
S    16.87999916  12.89000034  52.72999573
C    19.63000107  13.02999973  52.04999924
C    18.34000015  12.68000031  51.75000000
C    18.01000023  12.10000038  50.47999954
C    19.00000000  11.95000076  49.52000046
C    20.34000015  12.25000000  49.84000397
C    21.35000038  11.92999935  48.88999939
C    22.67000008  12.07999992  49.27000046
C    23.02000046  12.68000031  50.50000000
C    22.04999924  13.07999992  51.39999771
C    20.69000053  12.72999954  51.16000366
C    16.57999992  12.00000000  50.24000168
C    15.85000038  12.53999901  51.32999802
C    14.47000027  12.67000008  51.30000305
C    24.47000122  13.07000065  50.70000076
H    24.91102219  12.54361916  51.54647827
H    19.85999870  13.66000080  52.90999985
H    18.84000015  11.64999962  48.48999786
H    21.09999847  11.78999996  47.84999847
H    23.40999985  11.84999943  48.50999832
H    22.32000160  13.73000050  52.22000122
H    13.85000038  12.93000031  52.15000153
H    25.07999802  12.84000015  49.81999969
H    24.56000137  14.14999962  50.86999893
S    13.55000019  11.17000008  47.72999573
C    10.82999992  10.88000107  48.44999695
C    12.10000038  11.31000042  48.74000168
C    12.35999966  11.97000027  49.99000168
C    11.35000038  12.15999985  50.91999817
C    10.07999992  11.57999992  50.65999985
C     9.03999996  11.61000061  51.63000107
C     7.72000027  11.31000042  51.36000061
C     7.42000008  10.71000004  50.11000061
C     8.42000008  10.62999916  49.15999985
C     9.77000046  11.02000046  49.38000107
C    13.78000069  12.18000031  50.18000031
C    14.55999947  11.72999954  49.08000183
C    15.93999958  11.61999893  49.06000137
C     6.02999973  10.19000053  49.80999756
H     5.46256876  10.75743103  49.07233429
H    10.64000034  10.55999947  47.42000198
H    11.61999893  12.56999969  51.88999939
H     9.21000004  12.13999939  52.56000137
H     6.86999989  11.38000011  52.02000046
H     8.25000000  10.06999969  48.25000000
H    16.48999977  11.33999920  48.15999985
H     5.52999973  10.34000015  50.77000046
H     6.05000019   9.13000011  49.51000214
