96

S    16.68000031  12.53999901  58.88999939
C    19.36000061  12.82999992  58.09999847
C    18.12000084  12.27000046  57.90000153
C    17.72999954  11.64999962  56.65999985
C    18.71000099  11.42000008  55.72000122
C    20.05000114  11.78999996  55.97999954
C    21.09000015  11.56999969  55.02999878
C    22.32999992  12.11999989  55.25000000
C    22.63999939  12.79999924  56.45999908
C    21.68000031  13.02999973  57.41000366
C    20.38999939  12.46999931  57.19999695
C    16.31000137  11.38000011  56.51000214
C    15.60999966  11.87000084  57.63999939
C    14.23999977  12.07999992  57.70000076
C    24.02000046  13.38999939  56.65999985
H    24.49900246  12.91814709  57.51791000
H    19.62000084  13.43999958  58.95999908
H    18.43000031  10.97000027  54.77000427
H    20.78000069  11.21000099  54.05000305
H    23.06999969  12.01000023  54.47000122
H    21.88999939  13.53999996  58.34999847
H    13.76000023  12.41000080  58.61999893
H    24.60000038  13.27000046  55.72999954
H    23.90000153  14.47999954  56.70999908
S    13.09000015  11.03999996  54.08000183
C    10.43000031  10.98000050  54.71000290
C    11.69000053  11.36000061  55.12000275
C    12.02000046  11.61000061  56.49000168
C    11.00000000  11.69999981  57.42000198
C     9.65999985  11.43000031  57.02999878
C     8.55000019  11.77999973  57.85999680
C     7.27999973  11.44999981  57.44999695
C     7.04999971  10.88999939  56.17000198
C     8.05999947  10.76000023  55.26000214
C     9.39000034  11.05000019  55.66999817
C    13.47000027  11.65999985  56.59999847
C    14.19999981  11.30000019  55.44000244
C    15.57999992  11.11999989  55.34999847
C     5.69999981  10.26999950  55.86000061
H     5.17975712  11.03967476  55.28987122
H    10.26999950  10.59999943  53.70999908
H    11.26999950  12.07999992  58.40999985
H     8.76999950  12.36999989  58.74000168
H     6.44000006  11.61000061  58.11999893
H     8.01999950  10.38000011  54.23999786
H    16.10000038  10.88000107  54.43000031
H     5.00000000  10.01999950  56.66999817
H     5.91000032   9.38000011  55.24000168
S    13.20000076   9.22000027  51.13999939
C    10.47999954   8.65999985  51.69000244
C    11.82000065   8.52000046  52.00000000
C    12.23000050   7.76000023  53.13999939
C    11.21000099   7.27999973  53.94000244
C     9.82999992   7.36000013  53.62999725
C     8.75000000   6.84000015  54.40999985
C     7.40999985   7.00999975  54.20999908
C     7.05999947   7.64999962  52.98999786
C     8.05000019   8.11999989  52.15999985
C     9.44000053   8.10000038  52.47000122
C    13.67000008   7.82000017  53.33000183
C    14.34000015   8.53999996  52.30999756
C    15.72000027   8.71999931  52.32999802
C     5.59000015   7.82999992  52.64999771
H     5.29863548   6.99143791  52.01752472
H    10.14000034   9.10000038  50.76000214
H    11.44999981   6.63999987  54.78000259
H     9.06000042   6.21999979  55.25000000
H     6.74000025   6.47000027  54.87999725
H     7.75000000   8.63000011  51.25000000
H    16.27000046   9.15999985  51.50000000
H     4.88999987   7.78999996  53.48999786
H     5.45000029   8.80000019  52.15000153
S    16.94000053   7.05999947  55.68000031
C    19.68000031   7.44000006  55.00999832
C    18.34000015   7.59999990  54.75000000
C    17.89999962   8.34000015  53.60000229
C    18.86000061   8.85000038  52.75000000
C    20.25000000   8.64999962  52.97000122
C    21.24000168   9.07999992  52.04999924
C    22.57999802   8.96000004  52.30999756
C    23.02999878   8.30000019  53.47999954
C    22.09000015   7.85000038  54.38000107
C    20.69000053   7.97999954  54.16999817
C    16.45000076   8.31999969  53.44999695
C    15.77000046   7.59999990  54.45999908
C    14.42999935   7.26000023  54.36000061
C    24.51999855   8.23000050  53.75999832
H    24.79712677   8.37211704  54.80455780
H    20.05000114   6.80999994  55.80999756
H    18.43000031   9.30000019  51.86000061
H    20.88999939   9.52999973  51.11000061
H    23.31999969   9.35000038  51.62000275
H    22.37999916   7.26999998  55.25000000
H    13.92000008   6.65000010  55.11000061
H    25.09000015   8.89999962  53.11000061
H    24.84000015   7.23000002  53.43999863
