96

S    16.39000130  12.82999992  58.37999725
C    19.10000038  12.64000034  57.84999847
C    17.81999969  12.30000019  57.47000122
C    17.46999931  11.65999985  56.24000168
C    18.46999931  11.26999950  55.38000107
C    19.78000069  11.75000000  55.65000153
C    20.88000107  11.61999893  54.75999832
C    22.20000076  11.95000076  54.98000336
C    22.50000000  12.55000019  56.23000336
C    21.47999954  12.74000072  57.14000320
C    20.13000107  12.35000038  56.90999985
C    16.03000069  11.69000053  56.02000427
C    15.29999924  12.27000046  57.09000015
C    13.92000008  12.38999939  57.12999725
C    23.90999985  12.84999943  56.68000031
H    24.27319336  12.14497471  57.42774963
H    19.22000122  13.14000034  58.80000305
H    18.31999969  10.72999954  54.45000076
H    20.56999969  11.28000069  53.76999664
H    22.92000008  11.80999947  54.19000244
H    21.61999893  13.17999935  58.11999893
H    13.35000038  12.75000000  57.97999954
H    24.56999969  12.76000023  55.79999924
H    23.97999954  13.86999989  57.06999969
S    12.76000023  10.53999996  53.79000092
C    10.10000038  10.39999962  54.59000015
C    11.38000011  10.81999969  54.86999893
C    11.79999924  11.40999985  56.11000061
C    10.84000015  11.69999981  57.05999756
C     9.50000000  11.30000019  56.81999969
C     8.47999954  11.50000000  57.78999710
C     7.17000008  11.21999931  57.45999908
C     6.80000019  10.46000004  56.31999969
C     7.76999998  10.31000042  55.34999847
C     9.13000011  10.64000034  55.59000015
C    13.22999954  11.69000053  56.11999893
C    13.89999962  11.25000000  54.94999695
C    15.29000092  11.19999981  54.93999863
C     5.51999998   9.68999958  56.09000397
H     5.10726547  10.13831520  55.18625259
H     9.94000053   9.90999985  53.62999725
H    11.10999966  12.25999928  57.94000244
H     8.67000008  11.92000008  58.76999664
H     6.37000036  11.56999969  58.09999847
H     7.57000017   9.94999981  54.34000015
H    15.84000015  10.72000027  54.13999939
H     4.88999987   9.85000038  56.95999908
H     5.63000011   8.61999989  55.87999725
S    16.90999985  12.77999973  52.75000000
C    19.54000092  13.02999973  52.09000015
C    18.29000092  12.65999985  51.65000153
C    17.94999886  12.03999996  50.40999985
C    18.98999977  11.77000046  49.54000092
C    20.30999947  12.01000023  49.97000122
C    21.38000107  11.84999943  49.03999710
C    22.65000153  12.28000069  49.33000183
C    22.93000031  12.88000011  50.59000015
C    21.90999985  13.19000053  51.45999908
C    20.59000015  12.72999954  51.18000031
C    16.53000069  11.72999954  50.33000183
C    15.82999992  12.10000038  51.51000214
C    14.45000076  12.23999977  51.56999969
C    24.27000046  13.52000046  50.84999847
H    24.92397308  12.75940037  51.27650452
H    19.72999954  13.61999989  52.98999786
H    18.70000076  11.49000072  48.53000259
H    21.11000061  11.68000031  48.00000000
H    23.40999985  12.22000027  48.55999756
H    22.09000015  13.86000061  52.29999924
H    13.88000011  12.64000034  52.41000366
H    24.63000107  13.93000031  49.89999771
H    24.09000015  14.27000046  51.63999939
S    13.27999973  11.03000069  48.00000000
C    10.57000065  11.05999947  48.61999893
C    11.84999943  11.42000008  48.95999908
C    12.25000000  11.92000008  50.24000168
C    11.25000000  12.06999969  51.18999863
C     9.94999981  11.61999893  50.87999725
C     8.96000004  11.76000023  51.90000153
C     7.67000008  11.36000061  51.63000107
C     7.31999969  10.81999969  50.37000275
C     8.23000050  10.67000008  49.34000015
C     9.52999973  11.18000031  49.58000183
C    13.68999958  11.92000008  50.44000244
C    14.40000057  11.44000053  49.31000137
C    15.77999973  11.28999901  49.22999954
C     5.91000032  10.29000092  50.20999908
H     5.42655659  10.86586761  49.42084885
H    10.26000023  10.62999916  47.67000198
H    11.56000042  12.28999996  52.21000290
H     9.22000027  12.28000069  52.81000137
H     6.86999989  11.28000069  52.36999893
H     7.95000029  10.17000008  48.41999817
H    16.26000023  10.98000050  48.30999756
H     5.35000038  10.38000011  51.13999939
H     6.11000013   9.23999977  49.95999908
