96

S    16.39000130  12.44999981  58.87000275
C    19.10000038  12.79000092  58.09999847
C    17.84000015  12.30000019  57.85999680
C    17.56000137  11.64000034  56.62000275
C    18.60999870  11.54999924  55.72000122
C    19.93000031  11.97999954  55.98999786
C    21.01000023  11.63000011  55.13000107
C    22.29000092  11.92999935  55.54000092
C    22.55000114  12.46999931  56.81999969
C    21.54999924  12.81999969  57.70000076
C    20.22000122  12.53999901  57.28000259
C    16.13000107  11.44999981  56.39999771
C    15.38000011  11.95000076  57.50000000
C    13.99000072  12.02999973  57.47000122
C    23.95000076  12.89999962  57.21000290
H    24.41915703  12.14650726  57.84265137
H    19.07999992  13.48999977  58.94000244
H    18.53000069  10.72999954  55.00000000
H    20.65000153  11.09000015  54.26000214
H    23.13999939  11.56000042  54.98000336
H    21.80000114  13.38000107  58.60000229
H    13.43000031  12.51000023  58.26000214
H    24.54999924  13.10999966  56.31999969
H    23.88000107  13.86999989  57.70000076
S    12.97999954  10.73999977  53.88999939
C    10.25000000  10.59000015  54.66999817
C    11.52999973  11.05999947  54.86000061
C    11.82999992  11.69999981  56.10000229
C    10.85000038  12.05999947  57.00000000
C     9.50000000  11.76000023  56.69000244
C     8.40999985  11.95000076  57.58999634
C     7.13000011  11.50000000  57.38999939
C     6.85999966  10.77000046  56.20999908
C     7.88999987  10.39999962  55.37000275
C     9.19000053  10.97000027  55.52999878
C    13.27000046  11.69000053  56.31000137
C    14.04999924  11.28000069  55.20000076
C    15.43000031  11.18000031  55.21999741
C     5.46000004  10.25000000  55.97000122
H     4.93993568  10.73444366  55.14359665
H    10.06999969   9.81000042  53.93000031
H    11.13000011  12.30000019  58.02999878
H     8.67999935  12.18999958  58.61000061
H     6.42000008  11.51000023  58.22000122
H     7.65999985   9.81999969  54.48999786
H    15.93000031  11.02000046  54.27000046
H     4.86000013  10.17000008  56.88000107
H     5.65000010   9.22000027  55.61999893
S    17.15999985  12.96000004  52.81000137
C    19.80999947  13.30999947  52.06999969
C    18.56999969  12.84000015  51.72999954
C    18.20000076  12.36999989  50.43000031
C    19.14999962  12.43000031  49.43000031
C    20.48000145  12.79999924  49.72999954
C    21.53000069  12.76000023  48.76999664
C    22.84000015  12.97999954  49.13999939
C    23.13999939  13.42000008  50.45999908
C    22.13000107  13.68000031  51.36000061
C    20.79000092  13.30999947  51.04000092
C    16.76000023  12.28999996  50.26000214
C    16.06999969  12.63000011  51.45000076
C    14.70000076  12.51000023  51.63999939
C    24.60000038  13.56999969  50.80999756
H    24.92712593  12.93708324  51.63492584
H    20.00000000  13.68999958  53.06999969
H    18.97999954  12.20000076  48.37999725
H    21.34000015  12.46999931  47.74000168
H    23.59000015  12.94000053  48.36000061
H    22.34999847  13.97999954  52.37999725
H    14.11999893  12.89999962  52.48000336
H    25.23999977  13.34000015  49.94999695
H    24.86000061  14.59000015  51.11999893
S    13.53999996  11.75000000  47.87000275
C    10.82999992  11.49000072  48.60000229
C    12.13999939  11.71000004  48.95999908
C    12.53999901  12.06999969  50.27999878
C    11.51000023  12.28999996  51.18000031
C    10.14999962  12.01000023  50.93000031
C     9.11000061  11.90000057  51.90000153
C     7.82999992  11.56999969  51.55000305
C     7.55000019  11.11999989  50.22999573
C     8.47999954  11.26000023  49.22000122
C     9.81999969  11.56000042  49.59999847
C    13.96999931  12.13000107  50.51000214
C    14.63000107  11.97000027  49.26000214
C    16.01000023  11.92000008  49.13000107
C     6.21999979  10.47000027  49.94999695
H     5.74988365  10.96860790  49.10236359
H    10.52000046  11.31000042  47.57999802
H    11.75000000  12.51999950  52.22000122
H     9.35999966  12.18000031  52.91999817
H     7.13999987  11.52999973  52.37999725
H     8.32999992  10.92000008  48.20000076
H    16.61999893  11.68000031  48.26000214
H     5.64000034  10.59000015  50.87999725
H     6.39999962   9.40999985  49.73999786
