96

S    15.98999977  11.97999954  58.68000031
C    18.73999977  11.92000008  58.04000092
C    17.43999863  11.59999943  57.71999741
C    17.10000038  11.13999939  56.40999603
C    18.12999916  10.67000008  55.61000061
C    19.47999954  11.00999928  55.87999725
C    20.55999947  10.75000000  54.98000336
C    21.80000114  11.31000042  55.14999771
C    22.07999992  12.01000023  56.35000229
C    21.11000061  12.15000057  57.30999756
C    19.78000069  11.71000004  57.09999847
C    15.70000076  11.38000011  56.10000229
C    15.01999950  11.97000027  57.18999863
C    13.63000011  12.01000023  57.30999756
C    23.54000092  12.34000015  56.59999847
H    23.98135185  11.63526154  57.30473709
H    19.01000023  12.38999939  58.97999573
H    17.77000046  10.06999969  54.78000259
H    20.30999947  10.17000008  54.09999847
H    22.52000046  11.13000011  54.36000061
H    21.40000153  12.71000004  58.20999908
H    13.14000034  12.23000050  58.26000214
H    24.15999985  12.39999962  55.70000076
H    23.77000046  13.28999996  57.09999847
S    12.44999981  10.52999973  53.81000137
C     9.81000042  10.26000023  54.73999786
C    11.09000015  10.75000000  54.93000031
C    11.43000031  11.35000038  56.18000031
C    10.44000053  11.61999893  57.11000061
C     9.11999989  11.17000008  56.90000153
C     8.10000038  11.38000011  57.85999680
C     6.77999973  11.13000011  57.56000137
C     6.40999985  10.48999977  56.33999634
C     7.39000034  10.21000004  55.41999817
C     8.76000023  10.52999973  55.65999985
C    12.88000011  11.50000000  56.25000000
C    13.55000019  11.13999939  55.06000137
C    14.93999958  11.03999996  54.98000336
C     4.97000027  10.07999992  56.11000061
H     4.55078220  10.67685318  55.29998779
H     9.61999989   9.78999996  53.79000092
H    10.75000000  12.07999992  58.04999924
H     8.43999958  11.77999973  58.81999969
H     6.03999996  11.32999992  58.31999969
H     7.09999990   9.76000023  54.47000122
H    15.29999924  10.60999966  54.05000305
H     4.46000004  10.11999989  57.08000183
H     5.01999950   9.02000046  55.86999893
S    16.69999886  12.53999901  52.72999573
C    19.36000061  12.38999939  52.04999924
C    18.05999947  12.13000107  51.65999985
C    17.70000076  11.84000015  50.31000137
C    18.71999931  11.61000061  49.40999985
C    20.06999969  11.90999985  49.72999954
C    21.15999985  11.63000011  48.86000061
C    22.43999863  12.05000019  49.13000107
C    22.67999840  12.71999931  50.35999680
C    21.68999863  12.79000092  51.31000137
C    20.38999939  12.25999928  51.09000397
C    16.25000000  11.97000027  50.18000031
C    15.57000065  12.30000019  51.38000107
C    14.19000053  12.43000031  51.36000061
C    24.05999947  13.23999977  50.66999817
H    24.50729752  12.64360428  51.46519470
H    19.57999992  12.89999962  52.98999786
H    18.53000069  11.21999931  48.40999985
H    20.88999939  11.21999931  47.88000107
H    23.25000000  11.75000000  48.47000122
H    21.80000114  13.20000076  52.30999756
H    13.66000080  12.68000031  52.28000259
H    24.75000000  13.15999985  49.81999969
H    23.97999954  14.28999996  50.97999954
S    13.05999947  11.26000023  47.74000168
C    10.34999943  11.05000019  48.41999817
C    11.63000011  11.43000031  48.77999878
C    11.97999954  11.87000084  50.08999634
C    11.00999928  11.90000057  51.06999969
C     9.68999958  11.51999950  50.73999786
C     8.64000034  11.51999950  51.70999908
C     7.36999989  11.14999962  51.31999969
C     7.03999996  10.65999985  50.02999878
C     8.02999973  10.64000034  49.06999969
C     9.34000015  11.10000038  49.40999985
C    13.42000008  12.07999992  50.25000000
C    14.13000011  11.75000000  49.06000137
C    15.51000023  11.56999969  49.06000137
C     5.65999985  10.18000031  49.65999985
H     5.31833172  10.67114830  48.74888229
H    10.11999989  10.62000084  47.44999695
H    11.28000069  12.17000008  52.09000015
H     8.85999966  11.68000031  52.76000214
H     6.57000017  11.21000099  52.04000092
H     7.88000011  10.34999943  48.04000092
H    15.95999908  10.95000076  48.29999924
H     4.92999983  10.46000004  50.43000031
H     5.64000034   9.07999992  49.59000015
