96

S    16.42000008  12.20000076  58.75000000
C    19.10000038  12.35000038  57.95000076
C    17.81999969  11.92999935  57.69000244
C    17.45000076  11.28000069  56.46999741
C    18.46999931  11.13000011  55.54999924
C    19.78999901  11.61000061  55.72999954
C    20.81999969  11.49000072  54.75999832
C    22.13999939  11.72999954  55.06999969
C    22.40999985  12.43999958  56.26999664
C    21.44000053  12.69000053  57.22000122
C    20.10000038  12.30999947  56.93999863
C    16.00000000  11.23000050  56.27999878
C    15.34999943  11.77000046  57.41000366
C    13.99000072  12.05999947  57.42000198
C    23.87000084  12.68000031  56.53999710
H    24.20281601  11.98604298  57.31185150
H    19.40000153  12.92000008  58.82999802
H    18.18000031  10.67999935  54.59999847
H    20.50000000  11.05999947  53.81000137
H    22.88000107  11.46000004  54.31999969
H    21.73999977  13.14000034  58.16999817
H    13.45000076  12.44999981  58.29000092
H    24.36000061  12.50000000  55.58000183
H    24.11999893  13.71999931  56.81000137
S    12.81999969  10.59000015  53.88999939
C    10.11999989  10.47999954  54.69999695
C    11.43000031  10.80999947  54.97000122
C    11.82999992  11.50000000  56.16000366
C    10.85999966  11.72000027  57.11000061
C     9.52000046  11.28000069  56.93000031
C     8.45000076  11.56999969  57.81999969
C     7.14999962  11.25000000  57.50999832
C     6.81999969  10.57999992  56.31000137
C     7.81000042  10.22999954  55.40999985
C     9.15000057  10.57999992  55.72999954
C    13.27000046  11.67000008  56.29000092
C    13.94000053  11.13999939  55.14999771
C    15.31000042  10.88999939  55.11000061
C     5.42000008  10.18000031  55.90000153
H     5.07014418  10.60125542  54.95753479
H     9.78999996  10.22999954  53.68999863
H    11.14999962  12.01000023  58.11999893
H     8.67000008  12.07999992  58.75999832
H     6.38000011  11.54999924  58.20999908
H     7.55000019   9.89000034  54.40999985
H    15.77999973  10.59000015  54.18000031
H     4.78999996  10.42000008  56.77000046
H     5.42999983   9.09000015  55.86000061
S    13.81999969   8.61999989  50.93999863
C    11.13999939   7.92999983  51.55000305
C    12.46999931   7.99000025  51.90999985
C    12.86999893   7.46000004  53.18000031
C    11.95000076   6.81999969  53.99000168
C    10.57000065   6.77999973  53.68999863
C     9.52000046   6.42000008  54.58000183
C     8.18000031   6.56000042  54.27000046
C     7.79999971   7.22000027  53.08000183
C     8.80999947   7.55999994  52.21000290
C    10.19999981   7.32999992  52.42000198
C    14.30999947   7.55000019  53.37999725
C    14.92000008   8.17000008  52.25999832
C    16.28999901   8.42000008  52.18000031
C     6.34999990   7.51999950  52.72999573
H     5.86322975   6.95448732  51.93542099
H    10.81999969   8.46000004  50.65999985
H    12.20000076   6.60000038  55.02999878
H     9.73999977   6.14000034  55.59999847
H     7.48000050   6.17999983  55.00999832
H     8.64999962   8.14000034  51.30000305
H    16.73999977   8.78999996  51.26999664
H     5.77000046   7.46000004  53.66000366
H     6.30999994   8.57999992  52.43000031
S    17.60000038   6.98000002  55.68999863
C    20.29999924   7.57999992  55.02999878
C    18.96000099   7.53999996  54.69999695
C    18.51000023   8.06999969  53.44999695
C    19.42000008   8.52000046  52.50999832
C    20.79999924   8.56999969  52.81999969
C    21.73999977   9.15000057  51.90999985
C    23.05000114   9.19000053  52.31999969
C    23.51000023   8.71000004  53.57999802
C    22.60000038   8.19999981  54.48999786
C    21.24000168   8.09000015  54.09999847
C    17.06999969   8.06999969  53.29000092
C    16.45000076   7.57000017  54.47000122
C    15.10000038   7.23999977  54.48999786
C    24.94999886   8.97999954  53.92000198
H    25.30635452   8.48823166  54.82514191
H    20.66999817   7.17999983  55.96000290
H    19.03000069   8.90999985  51.56999969
H    21.40999985   9.52000046  50.93999863
H    23.67000198   9.85999966  51.72999954
H    22.80999947   7.90999985  55.51000214
H    14.73000050   6.63999987  55.31999969
H    24.97999954  10.06999969  54.05000305
H    25.53999901   8.64999962  53.04999924
