96

S    17.09000015  12.35000038  58.90999603
C    19.82999992  12.03999996  58.34000015
C    18.52000046  11.96000004  57.93000031
C    18.20000076  11.43000031  56.63999939
C    19.23999977  11.26999950  55.72999954
C    20.59999847  11.51000023  56.04000092
C    21.63999939  11.38000011  55.07999802
C    22.93000031  11.57999992  55.52000046
C    23.22999954  12.09000015  56.81000137
C    22.22999954  12.17000008  57.75000000
C    20.88000107  11.87000084  57.41000366
C    16.76000023  11.33999920  56.50000000
C    16.00000000  11.80999947  57.61000061
C    14.63000107  12.02000046  57.63000107
C    24.63000107  12.58999920  57.08000183
H    25.06516266  12.01929569  57.90038681
H    19.96999931  12.48999977  59.31999969
H    19.00000000  10.75000000  54.81999969
H    21.47999954  11.10999966  54.03999710
H    23.81999969  11.44999981  54.91000366
H    22.57999802  12.46000099  58.74000168
H    14.18000031  12.53000069  58.47999954
H    25.20000076  12.36999989  56.17000198
H    24.64999962  13.67000008  57.28000259
S    13.43999958  10.55999947  54.15999985
C    10.70000076  10.81999969  54.65000153
C    11.98999977  11.16000080  54.98000336
C    12.39999962  11.59000015  56.27999878
C    11.39999962  11.84999943  57.18999863
C    10.05000019  11.49000072  56.97000122
C     8.98999977  11.64000034  57.91999817
C     7.72000027  11.21999931  57.63000107
C     7.36999989  10.77999973  56.31999969
C     8.36000061  10.70000076  55.37000275
C     9.71000004  11.03000069  55.65000153
C    13.82999992  11.61000061  56.56000137
C    14.53999996  11.06999969  55.45000076
C    15.93000031  10.93999958  55.45000076
C     5.97000027  10.32999992  55.94999695
H     5.67868471  10.70657825  54.96947479
H    10.50000000  10.46000004  53.63999939
H    11.75000000  12.09000015  58.18999863
H     9.19000053  11.78999996  58.97999573
H     6.96000004  11.16000080  58.40000153
H     8.27000046  10.29000092  54.36999893
H    16.44000053  10.57000065  54.55999756
H     5.21000004  10.64000034  56.65999985
H     6.01000023   9.23999977  55.98999786
S    17.21999931  12.56999969  52.83000183
C    19.92000008  12.55000019  52.15000153
C    18.61999893  12.32999992  51.77000046
C    18.20000076  12.00000000  50.44000244
C    19.20999908  11.84999943  49.50000000
C    20.55999947  12.13999939  49.79000092
C    21.61999893  12.11999989  48.83999634
C    22.90999985  12.48999977  49.15000153
C    23.21000099  12.88000011  50.47999954
C    22.27000046  12.72999954  51.46999741
C    20.92000008  12.38999939  51.16000366
C    16.76000023  12.02000046  50.27999878
C    16.09000015  12.38000011  51.47999573
C    14.70999908  12.38000011  51.56999969
C    24.60000038  13.34000015  50.86999893
H    25.07836342  12.64744377  51.56255722
H    20.26000023  12.82999992  53.15000153
H    18.97999954  11.63000011  48.46000290
H    21.32999802  11.89000034  47.81000137
H    23.69999886  12.48000050  48.40000153
H    22.49000168  12.82999992  52.52999878
H    14.22999954  12.56999969  52.52999878
H    25.10000038  13.35000038  49.88999939
H    24.61999893  14.37999916  51.20999908
S    13.60999966  11.31999969  47.84999847
C    10.88000107  11.18999958  48.50999832
C    12.18000031  11.44999981  48.88999939
C    12.53999901  11.87999916  50.20999908
C    11.49000072  12.11999989  51.09000397
C    10.18000031  11.73999977  50.72999954
C     9.10000038  11.97000027  51.63000107
C     7.78999996  11.89000034  51.20999908
C     7.44000006  11.28999901  49.97000122
C     8.43999958  11.09000015  49.05000305
C     9.78999996  11.38000011  49.38999939
C    13.96999931  12.02000046  50.44000244
C    14.65000057  11.76000023  49.22000122
C    16.03000069  11.71000004  49.12000275
C     6.01000023  10.93999958  49.61000061
H     5.60957289  11.40478230  48.70903778
H    10.67000008  10.80000019  47.51999664
H    11.65999985  12.50000000  52.09000015
H     9.31999969  12.20000076  52.67000198
H     7.09999990  12.35000038  51.90999985
H     8.23000050  10.51000023  48.15000153
H    16.50000000  11.23000050  48.26000214
H     5.42000008  11.36999989  50.43000031
H     5.91000032   9.85000038  49.54000092
