96

S    16.35000038  12.50000000  58.74000168
C    18.93000031  12.82999992  57.87000275
C    17.72999954  12.20000076  57.65999603
C    17.40999985  11.51000023  56.44000244
C    18.39999962  11.40999985  55.47999954
C    19.67000008  12.01000023  55.63999939
C    20.73999786  11.80999947  54.72999954
C    22.04999924  12.13999939  54.98000336
C    22.29000092  12.79999924  56.22000122
C    21.25999832  13.15000057  57.05999756
C    19.90999985  12.74000072  56.86000061
C    15.98000050  11.28000069  56.39999771
C    15.27999973  11.75000000  57.54000092
C    13.89000034  11.87999916  57.58999634
C    23.67000198  13.19000053  56.70000076
H    24.00961876  12.46831036  57.44291687
H    19.19999886  13.32999992  58.80000305
H    18.38000107  10.65000057  54.69999695
H    20.56999969  11.25000000  53.81000137
H    22.82999992  12.00000000  54.22999954
H    21.54999924  13.52000046  58.04000092
H    13.40999985  12.36999989  58.43000031
H    24.23999977  13.14000034  55.76000214
H    23.59999847  14.17000008  57.18999863
S    12.64999962  10.65999985  54.03999710
C     9.96999931  10.55999947  54.86000061
C    11.26000023  10.98000050  55.08999634
C    11.63000011  11.61000061  56.31999969
C    10.69000053  11.71000004  57.32999802
C     9.34000015  11.39000034  57.04000092
C     8.36999989  11.39999962  58.08000183
C     7.07999992  11.00000000  57.81000137
C     6.69000053  10.44999981  56.56000137
C     7.59000015  10.44000053  55.52000046
C     8.93000031  10.85000038  55.77000046
C    13.07999992  11.56999969  56.49000168
C    13.76999950  11.14999962  55.31999969
C    15.15999985  11.02000046  55.30000305
C     5.23000002  10.11999989  56.32999802
H     4.77517700  10.84487343  55.65487289
H     9.64999962  10.10000038  53.93000031
H    11.05000019  11.97000027  58.31999969
H     8.55000019  11.77000046  59.08000183
H     6.32999992  11.14999962  58.57999802
H     7.23999977   9.90999985  54.64000320
H    15.70000076  10.88000107  54.36999893
H     4.63000011  10.01999950  57.23999786
H     5.09999990   9.13000011  55.87999725
S    17.13999939  13.09999943  52.77000046
C    19.81999969  13.19000053  52.15999985
C    18.56999969  12.74000072  51.79000092
C    18.25000000  12.11999989  50.54000092
C    19.25000000  12.03999996  49.59000015
C    20.55000114  12.48999977  49.93000031
C    21.70000076  12.28999996  49.10999680
C    22.95999908  12.76999950  49.40000153
C    23.19999886  13.50999928  50.59000015
C    22.17000008  13.53000069  51.50000000
C    20.88000107  13.00000000  51.23000336
C    16.80999947  12.03999996  50.34999847
C    16.07999992  12.53999901  51.45999908
C    14.68999958  12.56999969  51.46999741
C    24.63000107  13.86999989  50.93999863
H    25.07043076  13.21645737  51.69299316
H    19.92000008  13.81000042  53.04000092
H    19.04999924  11.44999981  48.69999695
H    21.59000015  11.65999985  48.22999954
H    23.82999802  12.58999920  48.77999878
H    22.27999878  13.86000061  52.52999878
H    14.27000046  12.92000008  52.42000198
H    25.26000023  13.71999931  50.06000137
H    24.60000038  14.92000008  51.25000000
S    13.59000015  11.23999977  47.95999908
C    10.90999985  11.06999969  48.59000397
C    12.17000008  11.42000008  49.01000214
C    12.53999901  11.87999916  50.31000137
C    11.51000023  12.15000057  51.19999695
C    10.18000031  11.89000034  50.81999969
C     9.15000057  11.95000076  51.79999924
C     7.86999989  11.54000092  51.53999710
C     7.59999990  10.88999939  50.30000305
C     8.55000019  10.85000038  49.29999924
C     9.88000011  11.30000019  49.54000092
C    13.99000072  11.97999954  50.41999817
C    14.70999908  11.44000053  49.31999969
C    16.10000038  11.49000072  49.27000046
C     6.19000006  10.47000027  49.95999908
H     5.65819073  11.07980824  49.22964859
H    10.70000076  10.57000065  47.64999771
H    11.77999973  12.56000042  52.16999817
H     9.46000004  12.35000038  52.77000046
H     7.03000021  11.78999996  52.18000031
H     8.40999985  10.59000015  48.26000214
H    16.61999893  11.18000031  48.36999893
H     5.61999989  10.39999962  50.89000320
H     6.25999975   9.40999985  49.68999863
