96

S    16.56999969  12.64000034  58.64999771
C    19.29000092  12.56000042  57.95999908
C    17.97999954  12.34000015  57.62000275
C    17.53000069  11.75000000  56.38999939
C    18.50000000  11.26999950  55.52000046
C    19.86999893  11.47999954  55.81999969
C    20.88000107  11.10999966  54.88999939
C    22.19000053  11.25000000  55.27999878
C    22.59000015  12.10000038  56.35000229
C    21.64999962  12.42000008  57.29999924
C    20.28000069  12.13000107  57.04000092
C    16.07999992  11.69999981  56.29000092
C    15.38000011  12.25999928  57.38999939
C    14.00000000  12.39999962  57.42000198
C    24.02000046  12.53000069  56.58000183
H    24.55951691  11.91949463  57.30409241
H    19.52999878  13.02999973  58.90999603
H    18.31999969  11.05000019  54.47000122
H    20.69999886  10.57999992  53.95999908
H    22.95000076  10.90999985  54.58000183
H    21.90999985  12.89000034  58.25000000
H    13.50999928  12.67000008  58.36000061
H    24.44000053  12.64000034  55.56999969
H    23.90999985  13.53999996  57.00000000
S    12.86000061  10.72999954  53.99000168
C    10.19000053  10.64000034  54.59999847
C    11.43000031  11.13000011  54.94999695
C    11.77000046  11.65999985  56.24000168
C    10.69000053  11.97000027  57.02999878
C     9.35000038  11.68000031  56.66999817
C     8.30000019  11.92999935  57.61000061
C     7.07000017  11.36000061  57.38999939
C     6.78999996  10.71000004  56.16000366
C     7.76000023  10.54999924  55.20000076
C     9.10000038  10.95999908  55.45000076
C    13.20000076  11.90999985  56.38000107
C    13.90999985  11.36000061  55.27999878
C    15.29000092  11.30000019  55.20000076
C     5.38000011  10.26999950  55.84000015
H     4.92361355  10.85474586  55.04132462
H    10.10000038   9.89000034  53.81999969
H    10.98999977  12.34000015  58.01000214
H     8.50000000  12.38999939  58.56999969
H     6.34000015  11.63000011  58.15000153
H     7.64999962  10.06999969  54.22999954
H    15.72000027  11.02000046  54.25000000
H     4.75000000  10.36000061  56.72999954
H     5.33999968   9.21000004  55.54000092
S    13.63999939   8.98999977  50.91999817
C    10.95000076   8.36000061  51.49000168
C    12.28999996   8.15999985  51.72999954
C    12.72999954   7.59000015  52.97000122
C    11.76000023   6.98999977  53.74000168
C    10.36999893   7.09999990  53.47000122
C     9.39999962   6.61000013  54.38999939
C     8.05999947   6.84000015  54.20000076
C     7.62000036   7.53000021  53.04000092
C     8.52999973   8.02999973  52.14000320
C     9.92999935   7.88999987  52.35000229
C    14.14999962   7.71000004  53.25000000
C    14.70999908   8.56000042  52.25999832
C    16.05999947   8.89000034  52.36999893
C     6.15000010   7.82000017  52.84999847
H     5.78724003   7.38611031  51.91820145
H    10.57999992   8.85999966  50.59000015
H    11.97999954   6.58999968  54.72999954
H     9.72000027   6.05999994  55.27000046
H     7.44000006   6.39999962  54.98000336
H     8.23999977   8.57999992  51.25000000
H    16.54999924   9.36999989  51.52999878
H     5.59999990   7.30000019  53.64999771
H     5.97000027   8.89999962  52.90000153
S    17.48999977   6.94000006  55.52000046
C    20.19000053   7.40000010  54.69999695
C    18.84000015   7.62000036  54.58000183
C    18.32999992   8.36000061  53.46000290
C    19.15999985   8.73000050  52.42000198
C    20.55000114   8.52000046  52.56000137
C    21.47999954   8.94999981  51.56999969
C    22.82999992   8.97000027  51.86000061
C    23.36000061   8.52999973  53.09999847
C    22.49000168   7.96999979  54.00000000
C    21.09000015   7.95000029  53.75999832
C    16.87000084   8.38000011  53.39000320
C    16.28000069   7.53000021  54.36000061
C    14.92000008   7.23999977  54.31999969
C    24.86000061   8.47000027  53.33000183
H    24.99471474   8.37782764  54.40771103
H    20.56999969   6.98000002  55.63000107
H    18.75000000   9.11000061  51.49000168
H    21.07999992   9.44999981  50.70000076
H    23.51000023   9.46000004  51.17000198
H    22.82999992   7.64999962  54.99000168
H    14.40999985   6.65000010  55.06999969
H    25.20999908   9.46000004  53.02999878
H    25.43000031   7.71000004  52.78999710
