96

S    16.57999992  12.28000069  59.06999969
C    19.30999947  12.44999981  58.44999695
C    18.02999878  12.11999989  58.06000137
C    17.71000099  11.56999969  56.77999878
C    18.71999931  11.16000080  55.93000031
C    20.05000114  11.51999950  56.23000336
C    21.11000061  11.28000069  55.31000137
C    22.42000198  11.56999969  55.63999939
C    22.63000107  12.23000050  56.88000107
C    21.64999962  12.53999901  57.78999710
C    20.29999924  12.22000027  57.47000122
C    16.26000023  11.49000072  56.62000275
C    15.47999954  11.84000015  57.75000000
C    14.09000015  11.95000076  57.70999908
C    24.04000092  12.69999981  57.18000031
H    24.55903625  11.93922234  57.76302719
H    19.45999908  12.84000015  59.45999908
H    18.44000053  10.65000057  55.00999832
H    21.02999878  10.90999985  54.29000092
H    23.22000122  11.21999931  54.99000168
H    21.84000015  13.12000084  58.68999863
H    13.52000046  12.31999969  58.54999924
H    24.60000038  12.84999943  56.25000000
H    24.01000023  13.63000011  57.76000214
S    13.12000084  10.65999985  54.03999710
C    10.34999943  10.77000046  54.58000183
C    11.64999962  11.00999928  54.97000122
C    12.02999973  11.56000042  56.23000336
C    11.05000019  11.73999977  57.18999863
C     9.72000027  11.44000053  56.81999969
C     8.67999935  11.69000053  57.76000214
C     7.37999964  11.44999981  57.39999771
C     6.98999977  10.92000008  56.14999771
C     7.96999979  10.62999916  55.21999741
C     9.31999969  10.95000076  55.52999878
C    13.45999908  11.57999992  56.52000046
C    14.18000031  11.17000008  55.37000275
C    15.55999947  11.09000015  55.47999954
C     5.52999973  10.65000057  55.84999847
H     5.08110905  11.24139595  55.05197144
H    10.10000038  10.29000092  53.62999725
H    11.36000061  12.02999973  58.20000076
H     8.96000004  12.18000031  58.68999863
H     6.61000013  11.75000000  58.11000061
H     7.81000042  10.17000008  54.25000000
H    16.04999924  10.70000076  54.59000015
H     5.00999975  10.60999966  56.81000137
H     5.45000029   9.63000011  55.45999908
S    13.20000076   8.73999977  51.05999756
C    10.51000023   8.09000015  51.70000076
C    11.85999966   7.92000008  51.86999893
C    12.38999939   7.17999983  52.97999954
C    11.54000092   6.69000053  53.95000076
C    10.14999962   6.93000031  53.80000305
C     9.22999954   6.42000008  54.75000000
C     7.86999989   6.50000000  54.52999878
C     7.28999996   7.25000000  53.47000122
C     8.17000008   7.69999981  52.50999832
C     9.57999992   7.55999994  52.63999939
C    13.81999969   7.36000013  53.16999817
C    14.45000076   8.14999962  52.18000031
C    15.76000023   8.60000038  52.28000259
C     5.78999996   7.13999987  53.26000214
H     5.45650768   7.61540413  52.33757401
H    10.14000034   8.73000050  50.90000153
H    11.90999985   6.05000019  54.75000000
H     9.50000000   5.75000000  55.56000137
H     7.34000015   5.73999977  55.07999802
H     7.88999987   8.09000015  51.53999710
H    16.31000137   9.13000011  51.51000214
H     5.42999983   6.11000013  53.36000061
H     5.32000017   7.69999981  54.06999969
S    17.01000023   6.94999981  55.66999817
C    19.68000031   7.44999981  55.00000000
C    18.35000038   7.60999966  54.71000290
C    17.94999886   8.32999992  53.53000259
C    18.89999962   8.85999966  52.67000198
C    20.27000046   8.73999977  52.97999954
C    21.28999901   9.25000000  52.11000061
C    22.60000038   9.18000031  52.50999832
C    23.00000000   8.48999977  53.68999863
C    22.04999924   7.81000042  54.40999985
C    20.66999817   8.05000019  54.18000031
C    16.50000000   8.23999977  53.41999817
C    15.85999966   7.48000050  54.41999817
C    14.55999947   7.00000000  54.29999924
C    24.44999886   8.14999962  53.95000076
H    24.88538551   8.61393452  54.83504486
H    19.93000031   6.80999994  55.84000015
H    18.44000053   9.31999969  51.79999924
H    20.97999954   9.71000004  51.18000031
H    23.36999893   9.59999943  51.86999893
H    22.34999847   7.25000000  55.30000305
H    14.11000061   6.48999977  55.14999771
H    25.03999901   8.43000031  53.08000183
H    24.53000069   7.07000017  54.13000107
