96

S    16.76000023  12.43000031  59.27000046
C    19.50000000  12.61000061  58.59000397
C    18.22000122  12.20999908  58.27999878
C    17.88999939  11.87000084  56.93000031
C    18.82999992  11.84999943  55.91999817
C    20.17000008  12.23000050  56.19999695
C    21.21999931  12.18999958  55.24000168
C    22.47999954  12.48999977  55.70000076
C    22.79999924  12.82999992  57.04000092
C    21.78999901  12.94999981  57.97000122
C    20.48000145  12.56999969  57.56999969
C    16.45000076  11.69000053  56.77000046
C    15.67999935  12.02999973  57.90999985
C    14.29999924  12.09000015  57.90999985
C    24.26000214  12.88000011  57.41000366
H    24.58889580  12.41525650  58.33948898
H    19.80999947  12.97999954  59.55999756
H    18.60000038  11.56999969  54.89999771
H    20.98999977  12.02000046  54.20000076
H    23.34000015  12.41000080  55.02999878
H    22.09000015  13.26000023  58.95999908
H    13.73999977  12.30000019  58.81999969
H    24.86999893  12.38000011  56.63999939
H    24.54999924  13.94000053  57.34000397
S    13.31999969  11.00999928  54.23999786
C    10.54999924  10.95000076  54.72000122
C    11.80999947  11.30000019  55.13000107
C    12.15999985  11.64000034  56.47999573
C    11.07999992  11.77999973  57.34000397
C     9.75000000  11.56999969  56.90999985
C     8.63000011  11.54000092  57.78999710
C     7.32999992  11.25000000  57.43999863
C     7.04999971  10.77999973  56.12999725
C     8.11999989  10.65999985  55.27000046
C     9.44000053  11.07999992  55.59000015
C    13.59000015  11.71000004  56.76000214
C    14.35999966  11.44999981  55.59999847
C    15.75000000  11.32999992  55.61000061
C     5.66999960  10.40999985  55.65000153
H     5.29277277  11.05057430  54.85284042
H    10.50000000  10.43000031  53.75999832
H    11.26000023  11.98999977  58.39000320
H     8.93000031  11.90000057  58.76999664
H     6.53999996  11.51999950  58.13999939
H     7.82000017  10.39999962  54.26000214
H    16.23999977  11.14999962  54.65999985
H     4.94999981  10.36000061  56.47999573
H     5.82999992   9.42000008  55.20999908
S    13.53000069   9.03999996  51.00000000
C    10.93000031   8.36000061  51.51000214
C    12.25000000   8.11999989  51.81999969
C    12.74000072   7.57999992  53.04999924
C    11.77999973   7.17000008  53.95999908
C    10.39999962   7.32999992  53.70999908
C     9.51000023   6.80000019  54.68999863
C     8.17000008   6.77999973  54.36999893
C     7.71000004   7.22000027  53.09999847
C     8.60000038   7.72000027  52.16999817
C     9.98999977   7.83999968  52.43000031
C    14.14999962   7.83999968  53.27000046
C    14.70000076   8.71999931  52.29999924
C    16.00000000   9.19000053  52.41000366
C     6.21999979   7.28999996  52.87000275
H     5.92757082   7.53963423  51.85006714
H    10.62999916   8.71999931  50.52999878
H    12.20999908   6.52999973  54.72999954
H     9.85999966   6.35999966  55.61999893
H     7.40000010   6.53999996  55.08999634
H     8.25000000   8.14000034  51.23000336
H    16.36999893   9.98000050  51.76000214
H     5.80999947   6.28000021  53.01000214
H     5.73000002   7.90000010  53.63999939
S    17.31999969   7.49000025  55.79000092
C    19.97999954   8.13000011  55.20999908
C    18.64999962   8.30999947  54.94999695
C    18.18000031   8.93000031  53.74000168
C    19.07999992   9.48999977  52.84999847
C    20.45999908   9.30999947  53.11000061
C    21.44000053   9.59999943  52.12999725
C    22.77000046   9.26999950  52.28000259
C    23.19999886   8.96000004  53.60000229
C    22.32999992   8.56000042  54.58000183
C    20.93000031   8.67000008  54.31000137
C    16.76000023   8.73999977  53.48999786
C    16.18000031   7.96000004  54.52000046
C    14.88999939   7.44999981  54.40000153
C    24.65999985   8.61999989  53.82999802
H    25.09403801   8.89749908  54.79057312
H    20.32999992   7.67000008  56.12999725
H    18.68999863  10.05000019  52.01000214
H    21.14000130  10.17000008  51.25000000
H    23.43000031   9.34000015  51.42000198
H    22.57999802   8.10000038  55.52999878
H    14.40999985   6.77999973  55.11000061
H    25.06999969   9.07999992  52.93000031
H    24.77999878   7.53000021  53.75999832
