96

S    16.43000031  12.35999966  58.96999741
C    19.13999939  12.32999992  58.50000000
C    17.89999962  11.87999916  58.09999847
C    17.61999893  11.43000031  56.77000046
C    18.64999962  11.56999969  55.84999847
C    19.93999863  11.96000004  56.26999664
C    21.04999924  11.92000008  55.38000107
C    22.32999992  12.32999992  55.68000031
C    22.56000137  12.92000008  56.95000076
C    21.54999924  12.84000015  57.88000107
C    20.26000023  12.30999947  57.63000107
C    16.18999863  11.31999969  56.52000046
C    15.43000031  11.82000065  57.61000061
C    14.04999924  12.00000000  57.58999634
C    23.88999939  13.53000069  57.36999893
H    24.41750526  12.76012897  57.93314743
H    19.20999908  12.77999973  59.48999786
H    18.50000000  11.39000034  54.78000259
H    20.90999985  11.68000031  54.33000183
H    23.16999817  12.28000069  55.00000000
H    21.73000145  13.36999989  58.81000137
H    13.35999966  12.23000050  58.40000153
H    24.47000122  13.86000061  56.50000000
H    23.67000198  14.42999935  57.95000076
S    13.17000008  10.85000038  53.86000061
C    10.43000031  10.57999992  54.51000214
C    11.68000031  11.05999947  54.80999756
C    11.94000053  11.52999973  56.13999939
C    10.93999958  11.64000034  57.08000183
C     9.61000061  11.31999969  56.70999908
C     8.51000023  11.61000061  57.56000137
C     7.21000004  11.42000008  57.15000153
C     6.96000004  10.77000046  55.90999985
C     7.99000025  10.65999985  55.00000000
C     9.35000038  10.80000019  55.38999939
C    13.35999966  11.69999981  56.40999603
C    14.11999893  11.35000038  55.26000214
C    15.51000023  11.26000023  55.30000305
C     5.52999973  10.29999924  55.77999878
H     4.95650768  10.82393169  55.01533890
H    10.31999969  10.08999920  53.54000092
H    11.19999981  12.11999989  58.02000046
H     8.78000069  11.90999985  58.56999969
H     6.38999987  11.43000031  57.87000275
H     7.81000042  10.29999924  53.99000168
H    16.07999992  11.18000031  54.38000107
H     5.07000017  10.51000023  56.75000000
H     5.55999994   9.22000027  55.59999847
S    13.83999920   8.86999989  50.97000122
C    11.18999958   8.30999947  51.53999710
C    12.51000023   8.15999985  51.88999939
C    12.97999954   7.67000008  53.15000153
C    12.05000019   7.05999947  53.97999573
C    10.67999935   7.16000032  53.66000366
C     9.71000004   6.71000004  54.59999847
C     8.36999989   6.78999996  54.31999969
C     7.95000029   7.40999985  53.11000061
C     8.84000015   7.88000011  52.16999817
C    10.22999954   7.76000023  52.43000031
C    14.42000008   7.81000042  53.33000183
C    15.00000000   8.56999969  52.28000259
C    16.32999992   8.94999981  52.30999756
C     6.50000000   7.78999996  52.88000107
H     6.05287361   7.24351263  52.04962158
H    10.86999989   8.97999954  50.73999786
H    12.34000015   6.63999987  54.93999863
H    10.03999901   6.30000019  55.54999924
H     7.73999977   6.34000015  55.07999802
H     8.50000000   8.26000023  51.20999908
H    16.77999878   9.42000008  51.44000244
H     5.79999971   7.72000027  53.70999908
H     6.58999968   8.85999966  52.65999603
S    17.64999962   7.55000019  55.79999924
C    20.30999947   7.88000011  55.02999878
C    18.98999977   8.21000004  54.82999802
C    18.54999924   8.71999931  53.56999969
C    19.54000092   9.13000011  52.69000244
C    20.93000031   9.02000046  52.94000244
C    21.96000099   9.35000038  52.00000000
C    23.28000069   9.11999989  52.29000092
C    23.64000130   8.60999966  53.55999756
C    22.69000053   8.14000034  54.43000031
C    21.31000137   8.32999992  54.13999939
C    17.11000061   8.57999992  53.41999817
C    16.50000000   7.90999985  54.51000214
C    15.17000008   7.49000025  54.45999908
C    25.10000038   8.27000046  53.77999878
H    25.42146873   8.74148750  54.70868301
H    20.58000183   7.17999983  55.81999969
H    19.37000084   9.63999939  51.75000000
H    21.61000061   9.90999985  51.13999939
H    24.02000046   9.46000004  51.56999969
H    22.95000076   7.63000011  55.35999680
H    14.68000031   7.00000000  55.30000305
H    25.72000122   8.55000019  52.90999985
H    25.10000038   7.17000008  53.87000275
