96

S    16.59000015  12.57999992  58.82999802
C    19.29999924  12.96000004  58.08000183
C    18.04000092  12.48000050  57.81999969
C    17.72999954  11.76000023  56.62000275
C    18.73999977  11.46000004  55.72000122
C    20.06999969  11.87000084  55.97999954
C    21.11000061  11.56000042  55.06000137
C    22.40999985  11.87000084  55.37000275
C    22.65999985  12.79999924  56.42000198
C    21.67000008  13.09000015  57.31999969
C    20.32999992  12.65999985  57.15000153
C    16.31000137  11.47999954  56.45999908
C    15.53999996  11.87999916  57.57999802
C    14.14999962  11.79999924  57.58999634
C    24.07999992  13.21000004  56.72000122
H    24.50766182  12.63265800  57.53968430
H    19.45000076  13.48999977  59.02000046
H    18.59000015  10.77999973  54.87999725
H    20.94000053  11.07999992  54.09999847
H    23.18000031  11.71000004  54.61999893
H    21.81999969  13.76000023  58.16999817
H    13.64999962  12.10000038  58.50000000
H    24.68000031  13.12000084  55.79999924
H    24.05999947  14.27000046  56.98999786
S    13.19000053  10.48999977  53.99000168
C    10.43000031  10.40999985  54.64000320
C    11.73999977  10.64000034  55.00000000
C    12.03999996  11.17000008  56.30000305
C    11.05000019  11.59999943  57.16999817
C     9.71000004  11.25000000  56.90999985
C     8.60999966  11.44000053  57.80000305
C     7.35000038  10.95999908  57.55000305
C     7.07999992  10.54999924  56.20999908
C     8.09000015  10.42000008  55.27999878
C     9.44999981  10.62999916  55.63999939
C    13.48000050  11.33999920  56.45000076
C    14.26000023  10.92000008  55.34999847
C    15.65000057  10.95000076  55.34999847
C     5.65999985  10.15999985  55.86000061
H     5.22334051  10.70403481  55.02247238
H    10.14999962   9.94000053  53.69999695
H    11.26999950  12.13000107  58.09000015
H     8.82000065  12.00000000  58.70999908
H     6.53999996  11.00999928  58.27000046
H     7.90000010  10.15999985  54.25000000
H    16.11999893  10.62000084  54.43000031
H     4.94000006  10.06000042  56.68000031
H     5.65000010   9.11000061  55.52999878
S    13.23999977   8.48999977  51.00000000
C    10.55999947   8.23000050  51.73999786
C    11.87999916   7.92999983  52.00000000
C    12.30000019   7.26999998  53.20000076
C    11.31999969   6.91999960  54.10999680
C     9.94999981   6.96000004  53.75000000
C     8.90999985   6.57000017  54.65000153
C     7.59999990   6.63999987  54.23999786
C     7.23999977   7.25000000  53.01000214
C     8.19000053   7.82000017  52.19999695
C     9.55999947   7.63000011  52.54000092
C    13.75000000   7.26999998  53.33000183
C    14.37999916   7.90000010  52.22999954
C    15.73999977   8.21000004  52.18000031
C     5.78999996   7.50999975  52.69000244
H     5.50394964   7.10952950  51.71743011
H    10.43000031   8.89000034  50.89000320
H    11.54999924   6.57000017  55.11000061
H     9.19999981   6.03999996  55.54999924
H     6.80999994   6.28000021  54.88999939
H     7.88000011   8.34999943  51.30000305
H    16.13999939   8.73999977  51.32999802
H     5.12000036   7.14999962  53.47999954
H     5.65999985   8.60000038  52.74000168
S    16.95999908   7.40999985  55.84999847
C    19.63000107   7.75000000  55.14999771
C    18.30999947   7.88000011  54.79999924
C    17.93000031   8.38999939  53.52000427
C    18.89000130   8.80000019  52.61000061
C    20.25000000   8.67000008  52.97000122
C    21.28999901   9.17000008  52.14000320
C    22.63000107   9.04999924  52.44999695
C    23.01000214   8.56000042  53.73000336
C    22.03000069   8.18000031  54.61999893
C    20.65999985   8.14999962  54.25000000
C    16.53000069   8.02999973  53.31999969
C    15.88999939   7.42999983  54.43000031
C    14.56999969   6.98000002  54.43000031
C    24.46000099   8.21000004  54.01000214
H    24.80892944   8.70847034  54.91436768
H    19.96000099   7.26000023  56.06999969
H    18.67000008   9.03999996  51.56999969
H    21.09000015   9.61000061  51.17000198
H    23.39999962   9.27999973  51.72999954
H    22.19000053   7.69999981  55.58000183
H    14.09999943   6.74000025  55.37000275
H    25.15000153   8.23999977  53.15999985
H    24.37999916   7.11999989  54.10999680
