96

S    16.61999893  12.32999992  58.68999863
C    19.29999924  12.43999958  58.06999969
C    18.02999878  12.10000038  57.64999771
C    17.61999893  11.72000027  56.32999802
C    18.56999969  11.56999969  55.34999847
C    19.92000008  11.84000015  55.68000031
C    20.95999908  11.61000061  54.72999954
C    22.27000046  11.92999935  54.98000336
C    22.60000038  12.46999931  56.25999832
C    21.59000015  12.68000031  57.16999817
C    20.22000122  12.32999992  57.00000000
C    16.18000031  11.46000004  56.25000000
C    15.47999954  11.82999992  57.42000198
C    14.09999943  11.96000004  57.51999664
C    24.04000092  12.77999973  56.59000015
H    24.46748734  12.08176994  57.30960464
H    19.55000114  12.76999950  59.08000183
H    18.25000000  11.32999992  54.34000015
H    20.63999939  11.07999992  53.82999802
H    23.02999878  11.78999996  54.20999908
H    21.80999947  13.14000034  58.11999893
H    13.63999939  12.15999985  58.47999954
H    24.72999954  12.89999962  55.75000000
H    24.04999924  13.76999950  57.08000183
S    12.97000027  10.95000076  53.81999969
C    10.24000072  11.05000019  54.38999939
C    11.54000092  11.19999981  54.84000397
C    11.90000057  11.56999969  56.17000198
C    10.90999985  11.90000057  57.06999969
C     9.57999992  11.54999924  56.73999786
C     8.52999973  11.51000023  57.69000244
C     7.35000038  10.85000038  57.43999863
C     7.00999975  10.57999992  56.09000397
C     7.90000010  10.84000015  55.06999969
C     9.25000000  11.17000008  55.38999939
C    13.34000015  11.59999943  56.39999771
C    14.02999973  11.23000050  55.21999741
C    15.40999985  11.23000050  55.10000229
C     5.63000011  10.06999969  55.72000122
H     5.28091526  10.72542381  54.92209244
H    10.00000000  10.69000053  53.39000320
H    11.06999969  12.15000057  58.11999893
H     8.80999947  11.90999985  58.66000366
H     6.67999983  10.65000057  58.27000046
H     7.63000011  10.62000084  54.03999710
H    15.92000008  11.18999958  54.13999939
H     4.98000002   9.94999981  56.59000015
H     5.82000017   9.09000015  55.26000214
S    13.78000069   8.93999958  51.13999939
C    11.10000038   8.17000008  51.52999878
C    12.42000008   8.14000034  51.93999863
C    12.81000042   7.50999975  53.15999985
C    11.82000065   6.94999981  53.95000076
C    10.44999981   7.04999971  53.63999939
C     9.44000053   6.51000023  54.47999954
C     8.11999989   6.57999992  54.09999847
C     7.79999971   7.14999962  52.84000015
C     8.71999931   7.77999973  52.04000092
C    10.08999920   7.75000000  52.43000031
C    14.22000027   7.73000002  53.47999954
C    14.85999966   8.47999954  52.45999908
C    16.21000099   8.80000019  52.52999878
C     6.30999994   7.28999996  52.58999634
H     5.97442389   6.60456753  51.81174850
H    10.85999966   8.69999981  50.61000061
H    12.01000023   6.65999985  54.98000336
H     9.75000000   5.92999983  55.34999847
H     7.37999964   6.01000023  54.65000153
H     8.46000004   8.19999981  51.06999969
H    16.73999977   9.31999969  51.73999786
H     5.77000046   7.03000021  53.50999832
H     6.11999989   8.34999943  52.42000198
S    17.43999863   7.26000023  55.97999954
C    20.17999840   7.50000000  55.25000000
C    18.85000038   7.69000006  54.98000336
C    18.44000053   8.25000000  53.73000336
C    19.34999847   8.71999931  52.80000305
C    20.72000122   8.46000004  53.04000092
C    21.68000031   8.96000004  52.11999893
C    23.02000046   8.96000004  52.42000198
C    23.43000031   8.52000046  53.69999695
C    22.50999832   8.07999992  54.62999725
C    21.14999962   7.88000011  54.27999878
C    16.98999977   8.30999947  53.59000397
C    16.31999969   7.69000006  54.66999817
C    14.98000050   7.32999992  54.58000183
C    24.77999878   8.96000004  54.22000122
H    25.25625229   8.24917507  54.89528656
H    20.43999863   7.14999962  56.25000000
H    19.04000092   9.27999973  51.91999817
H    21.31999969   9.39000034  51.18000031
H    23.68999863   9.44999981  51.70999908
H    22.84000015   7.94000053  55.65999985
H    14.45000076   6.84000015  55.38999939
H    24.71999931   9.89999962  54.77000427
H    25.48999977   8.98999977  53.37999725
