96

S    16.34000015  12.44999981  58.81999969
C    19.10000038  12.46000099  58.22000122
C    17.80999947  12.13999939  57.87000275
C    17.48999977  11.59999943  56.58000183
C    18.53000069  11.51000023  55.68000031
C    19.86999893  11.90000057  55.94999695
C    20.94000053  11.75000000  55.02999878
C    22.18000031  12.23999977  55.35999680
C    22.50999832  12.69999981  56.65999985
C    21.47000122  12.86000061  57.54000092
C    20.15000153  12.41000080  57.27000427
C    16.04999924  11.50000000  56.38000107
C    15.27999973  12.00000000  57.47000122
C    13.90999985  12.20000076  57.48000336
C    23.90999985  13.12999916  57.04999924
H    24.21604538  12.60331535  57.95390320
H    19.30999947  12.92000008  59.18000031
H    18.27999878  11.05999947  54.72000122
H    20.79000092  11.26000023  54.06999969
H    22.88999939  12.17000008  54.54000092
H    21.63999939  13.04999924  58.60000229
H    13.40000057  12.35000038  58.43000031
H    24.63000107  12.92000008  56.24000168
H    23.90999985  14.22000027  57.18000031
S    12.84999943  10.60999966  54.02000046
C    10.14999962  10.21999931  54.84000397
C    11.43000031  10.67999935  55.07999802
C    11.77000046  11.36999989  56.29000092
C    10.72999954  11.56999969  57.16999817
C     9.39000034  11.18000031  56.93999863
C     8.36000061  11.51000023  57.88000107
C     7.03999996  11.26999950  57.60000229
C     6.70000029  10.64000034  56.37000275
C     7.68000031  10.29000092  55.47000122
C     9.06999969  10.50000000  55.72000122
C    13.19000053  11.65999985  56.40999603
C    13.93000031  11.18999958  55.30000305
C    15.31999969  11.13000011  55.24000168
C     5.26000023  10.39000034  56.00000000
H     4.88970089  10.94544983  55.13834381
H     9.94999981   9.84000015  53.85000229
H    10.84000015  12.01000023  58.15000153
H     8.63000011  12.07999992  58.75999832
H     6.21999979  11.59999943  58.22999954
H     7.44000006   9.94000053  54.47000122
H    15.88999939  10.84000015  54.36000061
H     4.67999983  10.76000023  56.84999847
H     5.07000017   9.31999969  55.84000015
S    13.30999947   8.82000065  51.06999969
C    10.73999977   8.01000023  51.77999878
C    12.07999992   8.01000023  52.05999756
C    12.61000061   7.46000004  53.27000046
C    11.72000027   6.94000006  54.19000244
C    10.32999992   7.02000046  53.95000076
C     9.36999989   6.42000008  54.81999969
C     8.01000023   6.48999977  54.59000015
C     7.49000025   7.00999975  53.37999725
C     8.38999939   7.50999975  52.47000122
C     9.78999996   7.53000021  52.71999741
C    14.06000042   7.60999966  53.36999893
C    14.53999996   8.34999943  52.25999832
C    15.85999966   8.78999996  52.15999985
C     6.02999973   7.36999989  53.18000031
H     5.60251236   7.06363392  52.22527695
H    10.43000031   8.43000031  50.83000183
H    12.11999989   6.42000008  55.06000137
H     9.71000004   6.21999979  55.83000183
H     7.32999992   6.17000008  55.37000275
H     7.96999979   8.02999973  51.60999680
H    16.07999992   9.44999981  51.32999802
H     5.47999954   6.78999996  53.93000031
H     5.92999983   8.46000004  53.22999954
S    17.46000099   7.35000038  55.54000092
C    20.05000114   7.78999996  54.54999924
C    18.70000076   7.96999979  54.43000031
C    18.12000084   8.60999966  53.29000092
C    19.00000000   9.07999992  52.32999802
C    20.40999985   9.00000000  52.45999908
C    21.38000107   9.55000019  51.56999969
C    22.73999977   9.52999973  51.77999878
C    23.26999855   8.82000065  52.88999939
C    22.36999893   8.38000011  53.82999802
C    20.95999908   8.36999989  53.62999725
C    16.68000031   8.42000008  53.22999954
C    16.17000008   7.83999968  54.41999817
C    14.86999989   7.35000038  54.47000122
C    24.76000023   8.63000011  53.06000137
H    25.00849342   8.71519756  54.11787415
H    20.43999863   7.14999962  55.34000015
H    18.73999977   9.63000011  51.43000031
H    20.95000076  10.08999920  50.72999954
H    23.38000107  10.05000019  51.07999802
H    22.79999924   7.90000010  54.69999695
H    14.52999973   6.85999966  55.38999939
H    25.27000046   9.35999966  52.41000366
H    24.97999954   7.68000031  52.55000305
