96

S    16.59000015  11.98999977  58.90999603
C    19.23999977  12.61000061  58.16999817
C    17.97000122  12.20000076  57.81999969
C    17.71000099  11.77000046  56.47999573
C    18.75000000  11.64000034  55.56999969
C    20.07999802  11.90000057  55.96000290
C    21.09999847  11.71000004  54.99000168
C    22.39999962  11.89000034  55.38999939
C    22.65000153  12.56999969  56.60999680
C    21.67000008  12.77999973  57.56000137
C    20.34000015  12.35000038  57.30999756
C    16.28000069  11.57999992  56.30000305
C    15.52999973  11.75000000  57.50000000
C    14.14999962  11.77999973  57.63999939
C    24.11000061  12.75000000  56.97000122
H    24.53046227  12.09436512  57.73253250
H    19.37999916  13.05999947  59.13999939
H    18.53999901  11.32999992  54.54999924
H    20.78000069  11.21999931  54.06999969
H    23.26000023  11.56000042  54.81999969
H    21.87000084  13.21000004  58.53000259
H    13.61999989  12.02000046  58.55999756
H    24.70999908  12.81000042  56.04999924
H    24.20999908  13.76000023  57.39999771
S    13.07000065  11.36000061  53.82999802
C    10.53999996  10.52000046  54.54999924
C    11.72999954  11.05999947  54.95999908
C    12.00000000  11.40999985  56.31999969
C    10.93999958  11.39000034  57.21000290
C     9.64999962  11.05000019  56.73999786
C     8.60000038  11.03999996  57.70000076
C     7.35000038  10.57000065  57.36000061
C     7.09000015  10.18000031  56.02000427
C     8.09000015  10.14000034  55.06999969
C     9.40999985  10.57000065  55.40000153
C    13.43999958  11.59000015  56.45000076
C    14.14999962  11.39999962  55.24000168
C    15.52999973  11.31000042  55.14999771
C     5.73000002   9.71000004  55.56999969
H     5.13921022  10.42179489  54.99344635
H    10.47999954  10.15999985  53.52000427
H    11.14999962  11.36000061  58.27000046
H     8.76999950  11.39000034  58.72000122
H     6.48999977  10.50000000  58.01000214
H     7.79999971   9.88000011  54.06000137
H    15.93999958  11.10999966  54.15999985
H     5.36000013   9.46000004  56.56999969
H     5.75999975   8.76000023  55.02999878
S    13.40000057   9.02000046  51.02000427
C    10.72000027   8.40999985  51.59000015
C    12.03999996   8.38999939  51.97999954
C    12.39999962   7.71000004  53.18000031
C    11.46999931   7.11999989  54.01000214
C    10.10000038   7.17000008  53.62999725
C     9.07999992   6.61000013  54.43999863
C     7.76999998   6.50000000  54.02999878
C     7.40999985   7.00999975  52.76000214
C     8.36000061   7.67000008  52.01000214
C     9.72999954   7.78999996  52.38999939
C    13.82999992   7.92000008  53.36999893
C    14.51000023   8.64999962  52.36000061
C    15.88999939   8.82000065  52.31999969
C     5.93999958   7.18999958  52.43000031
H     5.59885406   6.34424257  51.83299637
H    10.31000042   8.78999996  50.65999985
H    11.84000015   6.83000040  54.99000168
H     9.38000011   6.42000008  55.47000122
H     6.98999977   6.23000050  54.72999954
H     7.99000025   8.28999996  51.19999695
H    16.36000061   9.07999992  51.38000107
H     5.33999968   7.35000038  53.33000183
H     5.84999990   8.13000011  51.88000107
S    17.05999947   7.34000015  55.81999969
C    19.78000069   7.88000011  55.22999573
C    18.45999908   7.86000013  54.86000061
C    18.06999969   8.46000004  53.61999893
C    18.96999931   9.06000042  52.75000000
C    20.35000038   8.90999985  53.02000046
C    21.38999939   9.28999996  52.12999725
C    22.72000122   9.13000011  52.44999695
C    23.08000183   8.51000023  53.67000198
C    22.11000061   8.06999969  54.54999924
C    20.73999786   8.32999992  54.27999878
C    16.62999916   8.39999962  53.43000031
C    15.93999958   7.83999968  54.54000092
C    14.59000015   7.53000021  54.47999954
C    24.53000069   8.14000034  53.85000229
H    24.81572533   8.41858196  54.86432648
H    20.00999832   7.42000008  56.18000031
H    18.56999969   9.47000027  51.83000183
H    21.25999832   9.64999962  51.11000061
H    23.50000000   9.32999992  51.72000122
H    22.46000099   7.55999994  55.44000244
H    14.06999969   6.90999985  55.20999908
H    25.06999969   8.78000069  53.13999939
H    24.67000008   7.05999947  53.68000031
