96

S    16.59000015  12.48000050  58.88000107
C    19.34999847  12.44999981  58.13000107
C    18.02000046  12.15000057  57.90000153
C    17.61999893  11.80999947  56.56000137
C    18.59000015  11.69000053  55.58000183
C    19.95000076  11.94000053  55.83000183
C    20.94000053  11.75000000  54.81999969
C    22.27000046  11.97999954  55.07999802
C    22.67000008  12.31999969  56.39999771
C    21.73000145  12.64000034  57.36000061
C    20.34000015  12.43999958  57.11999893
C    16.18000031  11.64999962  56.39999771
C    15.47999954  12.10999966  57.54000092
C    14.09000015  12.22000027  57.57999802
C    24.13000107  12.55000019  56.70000076
H    24.41557884  11.99312305  57.59243011
H    19.64999962  12.84000015  59.09999847
H    18.20000076  11.28000069  54.65000153
H    20.69999886  11.63000011  53.75999832
H    23.02000046  11.98999977  54.29999924
H    22.10000038  12.97000027  58.33000183
H    13.66000080  12.51999950  58.53000259
H    24.79000092  12.11999989  55.93999863
H    24.31999969  13.61999989  56.84999847
S    13.01000023  10.77999973  54.02000046
C    10.25000000  10.84000015  54.59000015
C    11.54000092  11.18999958  54.93000031
C    11.87999916  11.77000046  56.19999695
C    10.82999992  11.98999977  57.06999969
C     9.51000023  11.56000042  56.81999969
C     8.43999958  11.72999954  57.74000168
C     7.14999962  11.49000072  57.32999802
C     6.85999966  10.80999947  56.11000061
C     7.88999987  10.55999947  55.22999573
C     9.19999981  11.02000046  55.52000046
C    13.30999947  11.77000046  56.51000214
C    14.01999950  11.30000019  55.38000107
C    15.40999985  11.26000023  55.30000305
C     5.46000004  10.34999943  55.79000092
H     4.96986437  10.91116905  54.99441528
H    10.03999901  10.21999931  53.73000336
H    11.02000046  12.34000015  58.08000183
H     8.61999989  12.23000050  58.68999863
H     6.42000008  11.61000061  58.11999893
H     7.69000006  10.03000069  54.29000092
H    15.90000057  10.98999977  54.36999893
H     4.88999987  10.47999954  56.72000122
H     5.35000038   9.28999996  55.52000046
S    16.97999954  13.03999996  52.81000137
C    19.64999962  13.27000046  51.98999786
C    18.36000061  12.89000034  51.70000076
C    17.98999977  12.51000023  50.37000275
C    18.96999931  12.18999958  49.45000076
C    20.30999947  12.53000069  49.73999786
C    21.35000038  12.15999985  48.82999802
C    22.65000153  12.30999947  49.26000214
C    22.98000145  13.19000053  50.33000183
C    21.97999954  13.59000015  51.18999863
C    20.62999916  13.20000076  50.97000122
C    16.54999924  12.32999992  50.28999710
C    15.86999989  12.58999920  51.51000214
C    14.47999954  12.61999989  51.59000015
C    24.43000031  13.38999939  50.66999817
H    24.66545105  12.96904373  51.64747238
H    19.90999985  13.59000015  53.00000000
H    18.70000076  11.59000015  48.59000397
H    21.04000092  11.64999962  47.91999817
H    23.45000076  11.98999977  48.61000061
H    22.26000023  14.13000011  52.09000015
H    13.88000011  12.76000023  52.49000168
H    25.00000000  12.89000034  49.87999725
H    24.77000046  14.44000053  50.65999985
S    13.32999992  11.52999973  47.95000076
C    10.62999916  11.21999931  48.69999695
C    11.92000008  11.54000092  49.03999710
C    12.35999966  12.01000023  50.31999969
C    11.39999962  12.22000027  51.29000092
C    10.06000042  11.80999947  51.05999756
C     9.02000046  12.02000046  52.01000214
C     7.73000002  11.75000000  51.62000275
C     7.35000038  11.16000080  50.38000107
C     8.34999943  11.00000000  49.45000076
C     9.70000076  11.28000069  49.78000259
C    13.78999901  12.25999928  50.44000244
C    14.47999954  11.92999935  49.23999786
C    15.85999966  11.96000004  49.12000275
C     5.92000008  10.80999947  50.05000305
H     5.50703669  11.56472588  49.38071442
H    10.36999893  10.85999966  47.70999908
H    11.65999985  12.69999981  52.22999954
H     9.25000000  12.43000031  52.98999786
H     6.94999981  12.02999973  52.30999756
H     8.09000015  10.65000057  48.44999695
H    16.39999962  11.73999977  48.20000076
H     5.26000023  10.67000008  50.91999817
H     5.78999996   9.82999992  49.58000183
