96

S    16.75000000  12.84000015  58.66000366
C    19.43000031  12.98999977  57.91999817
C    18.13999939  12.65999985  57.57999802
C    17.76000023  12.13999939  56.30000305
C    18.65999985  12.02000046  55.25000000
C    19.96999931  12.44999981  55.56000137
C    21.01000023  12.31999969  54.59999847
C    22.30999947  12.68000031  54.86999893
C    22.67999840  13.09999943  56.17000198
C    21.73999977  13.12999916  57.18000031
C    20.38000107  12.86000061  56.86999893
C    16.34000015  11.80999947  56.30000305
C    15.62000084  12.20000076  57.44999695
C    14.22999954  12.25999928  57.50999832
C    24.13000107  13.32999992  56.53999710
H    24.47724915  12.86227512  57.46127319
H    19.63999939  13.40000057  58.90999603
H    18.35000038  11.59000015  54.31000137
H    20.76000023  11.75000000  53.69999695
H    23.05000114  12.43999958  54.10999680
H    21.97999954  13.40999985  58.20000076
H    13.80000019  12.79000092  58.36000061
H    24.72999954  12.97999954  55.68999863
H    24.30999947  14.40999985  56.65999985
S    13.09000015  10.77999973  54.00000000
C    10.39999962  10.65000057  54.75999832
C    11.69999981  10.97000027  55.08999634
C    12.07999992  11.49000072  56.37000275
C    11.05000019  11.59999943  57.29000092
C     9.68999958  11.31999969  57.02000046
C     8.64999962  11.52999973  57.97000122
C     7.35000038  11.31000042  57.57999802
C     7.02000046  10.78999996  56.30000305
C     8.01000023  10.53999996  55.37000275
C     9.35999966  10.84000015  55.70000076
C    13.50999928  11.72000027  56.44000244
C    14.21000004  11.26999950  55.28999710
C    15.59999943  11.28999901  55.22999573
C     5.60999966  10.36000061  55.97000122
H     5.13191366  10.97366238  55.20648956
H    10.19999981  10.13000011  53.82999802
H    11.26000023  12.01000023  58.27000046
H     8.93999958  11.94000053  58.93000031
H     6.57999992  11.44000053  58.34000015
H     7.69000006  10.07999992  54.43999863
H    16.06999969  11.13000011  54.26000214
H     4.92000008  10.39999962  56.81999969
H     5.59999990   9.32999992  55.59999847
S    13.40999985   8.71999931  51.09000397
C    10.81999969   8.10000038  51.86999893
C    12.15999985   8.11999989  52.19999695
C    12.67000008   7.37999964  53.30999756
C    11.77999973   6.76999998  54.16999817
C    10.39000034   6.80999994  53.92000198
C     9.42000008   6.32000017  54.84000397
C     8.06999969   6.40999985  54.55999756
C     7.57999992   7.11000013  53.43000031
C     8.50000000   7.65999985  52.56000137
C     9.89999962   7.46000004  52.74000168
C    14.11999893   7.49000025  53.37999725
C    14.61999989   8.28999996  52.31999969
C    15.95000076   8.69000053  52.29999924
C     6.11000013   7.37999964  53.22999954
H     5.68324184   7.17373323  52.24845505
H    10.52000046   8.73999977  51.04999924
H    12.15999985   6.30000019  55.07999802
H     9.75000000   5.84000015  55.76000214
H     7.44000006   6.10000038  55.38000107
H     8.07999992   8.34000015  51.83000183
H    16.34000015   9.43000031  51.60999680
H     5.50000000   6.90999985  54.02000046
H     6.10000038   8.47000027  53.39000320
S    17.57999992   6.84000015  55.47999954
C    20.13000107   7.90999985  54.87999725
C    18.78000069   7.83999968  54.64000320
C    18.22000122   8.46000004  53.47999954
C    19.00000000   9.27999973  52.68000031
C    20.38999939   9.39000034  52.90999985
C    21.25999832   9.84000015  51.88999939
C    22.62000084   9.63000011  52.00000000
C    23.18000031   8.98999977  53.13999939
C    22.36999893   8.47000027  54.13000107
C    20.96999931   8.61999989  53.97999573
C    16.81999969   8.14000034  53.25000000
C    16.34000015   7.32999992  54.31000137
C    14.98000050   7.04999971  54.38999939
C    24.65999985   8.71999931  53.23999786
H    25.04424667   8.64884281  54.25753784
H    20.59999847   7.46000004  55.76000214
H    18.65999985   9.59999943  51.70000076
H    20.75000000  10.08999920  50.96000290
H    23.28000069   9.72999954  51.14999771
H    22.72999954   7.76000023  54.87999725
H    14.50000000   6.53999996  55.21999741
H    25.26000023   9.46000004  52.70000076
H    24.79999924   7.78999996  52.69000244
