96

S    16.72000122  12.57999992  58.87000275
C    19.45000076  12.34000015  58.34999847
C    18.15999985  11.96000004  58.04999924
C    17.86999893  11.23000050  56.86000061
C    18.85000038  10.93999958  55.93000031
C    20.15999985  11.42000008  56.17000198
C    21.14000130  11.13000011  55.18000031
C    22.42000198  11.59999943  55.34000015
C    22.72000122  12.38999939  56.49000168
C    21.80000114  12.64000034  57.48000336
C    20.48999977  12.09000015  57.41000366
C    16.43000031  11.21000099  56.60999680
C    15.67999935  11.82999992  57.63999939
C    14.30999947  12.05999947  57.54000092
C    24.15999985  12.77999973  56.72000122
H    24.55141258  12.08969021  57.46724319
H    19.68000031  12.93000031  59.22999954
H    18.59000015  10.44999981  55.00000000
H    20.95999908  10.44000053  54.34999847
H    23.19000053  11.23000050  54.68000031
H    22.04000092  13.19000053  58.37999725
H    13.76000023  12.43999958  58.39000320
H    24.70000076  12.71000004  55.77000046
H    24.18999863  13.80000019  57.11999893
S    13.38999939  10.44000053  54.02000046
C    10.60999966  10.34999943  54.58000183
C    11.90000057  10.64000034  54.95999908
C    12.23999977  11.18999958  56.24000168
C    11.18999958  11.50000000  57.08000183
C     9.84000015  11.23999977  56.72000122
C     8.71000004  11.61999893  57.50000000
C     7.40000010  11.33999920  57.18999863
C     7.18999958  10.52000046  56.04999924
C     8.23000050  10.10000038  55.25000000
C     9.55000019  10.57000065  55.47999954
C    13.64999962  11.49000072  56.44000244
C    14.40999985  10.93000031  55.38000107
C    15.78999996  10.76000023  55.45000076
C     5.84000015   9.88000011  55.81999969
H     5.17305565  10.54694462  55.27367401
H    10.38000011   9.81999969  53.66000366
H    11.36000061  12.20999908  57.88000107
H     8.93999958  12.03999996  58.47000122
H     6.63999987  11.42000008  57.95999908
H     8.06999969   9.30999947  54.52000046
H    16.28999901  10.36000061  54.58000183
H     5.36000013   9.55999947  56.76000214
H     5.98999977   8.93999958  55.27999878
S    13.45999908   8.30000019  51.13999939
C    10.80000019   7.67000008  51.77000046
C    12.13000107   7.65999985  52.12999725
C    12.61000061   7.11999989  53.36000061
C    11.72000027   6.60000038  54.29000092
C    10.34000015   6.74000025  53.99000168
C     9.31999969   6.39999962  54.91000366
C     8.01999950   6.19999981  54.51000214
C     7.53999996   6.67999983  53.26000214
C     8.47000027   7.20000029  52.38999939
C     9.85999966   7.16000032  52.69000244
C    14.06000042   7.18999958  53.47999954
C    14.65999985   7.82000017  52.36000061
C    16.02000046   8.10999966  52.31999969
C     6.05999994   6.74000025  52.94000244
H     5.86677027   6.39648056  51.92375565
H    10.48999977   8.11999989  50.83000183
H    12.06999969   6.03999996  55.14999771
H     9.68000031   6.07999992  55.89000320
H     7.27999973   5.71000004  55.13000107
H     8.27000046   7.55999994  51.38000107
H    16.54000092   8.60999966  51.51000214
H     5.52999973   6.21999979  53.74000168
H     5.63000011   7.75000000  52.95999908
S    17.31999969   6.69000053  55.79999924
C    19.97999954   7.30000019  55.24000168
C    18.67000008   7.30999994  54.82999802
C    18.23999977   7.78999996  53.54999924
C    19.23999977   8.25000000  52.71999741
C    20.61000061   8.23000050  53.06999969
C    21.55999947   8.84000015  52.19999695
C    22.85000038   8.92000008  52.64999771
C    23.26999855   8.34000015  53.88000107
C    22.34999847   7.90999985  54.80999756
C    21.01000023   7.76999998  54.38000107
C    16.79000092   7.69999981  53.40999985
C    16.14999962   7.09000015  54.52000046
C    14.78999996   6.80999994  54.59999847
C    24.70999908   8.55000019  54.29000092
H    25.10921860   7.91552782  55.08131027
H    20.26000023   6.93000031  56.22000122
H    18.98999977   8.65999985  51.73999786
H    21.31000137   9.17000008  51.18999863
H    23.57999992   9.39000034  51.98999786
H    22.60000038   7.64999962  55.84000015
H    14.28999996   6.09000015  55.25000000
H    24.76000023   9.57999992  54.66999817
H    25.30999947   8.48999977  53.37999725
