96

S    16.44000053  12.38999939  58.54999924
C    19.14999962  12.79000092  57.94000244
C    17.89999962  12.39999962  57.52999878
C    17.59000015  11.84000015  56.25000000
C    18.67000008  11.57999992  55.41999817
C    19.97999954  11.97999954  55.77000046
C    21.14999962  11.54999924  55.08999634
C    22.43999863  11.80999947  55.50000000
C    22.56000137  12.56999969  56.69000244
C    21.51000023  13.03999996  57.43999863
C    20.20000076  12.71999931  56.98999786
C    16.15999985  11.65999985  56.05999756
C    15.36999893  11.96000004  57.19999695
C    14.01000023  12.23000050  57.15000153
C    23.90000153  13.15000057  57.04999924
H    24.34913063  12.52264404  57.81993866
H    19.45999908  13.07000065  58.95000076
H    18.45000076  10.95999908  54.55999756
H    20.97999954  10.85000038  54.27000046
H    23.29999924  11.51999950  54.89999771
H    21.71999931  13.30999947  58.47000122
H    13.40000057  12.42000008  58.02999878
H    24.57999992  13.30000019  56.19999695
H    23.72999954  14.14999962  57.49000168
S    13.02000046  10.73999977  53.61999893
C    10.29000092  10.59000015  54.27999878
C    11.57999992  10.92000008  54.62999725
C    11.89000034  11.51000023  55.90000153
C    10.90999985  11.65999985  56.86000061
C     9.56999969  11.31000042  56.58000183
C     8.52999973  11.51000023  57.51999664
C     7.22000027  11.16000080  57.28000259
C     6.94999981  10.53999996  56.03000259
C     7.94000053  10.36999893  55.08999634
C     9.30999947  10.71000004  55.28999710
C    13.32999992  11.71000004  56.04999924
C    14.09000015  11.21000099  54.95999908
C    15.47999954  11.25000000  54.91000366
C     5.52999973  10.13000011  55.70999908
H     5.18258047  10.93119240  55.05770111
H    10.14000034  10.14999962  53.29999924
H    11.13000011  12.13999939  57.81000137
H     8.78000069  12.15999985  58.36000061
H     6.47000027  11.54000092  57.95999908
H     7.63999987   9.94999981  54.13000107
H    16.00000000  10.81999969  54.06000137
H     4.96000004  10.14000034  56.63999939
H     5.45000029   9.15999985  55.20999908
S    13.47000027   8.34999943  50.84000015
C    10.78999996   7.88999987  51.53999710
C    12.11999989   7.76000023  51.84000015
C    12.57999992   7.23999977  53.09000015
C    11.59999943   6.74000025  53.93000031
C    10.21000004   6.80000019  53.64999771
C     9.17000008   6.54999971  54.59000015
C     7.85000038   6.83000040  54.33000183
C     7.42999983   7.48000050  53.13999939
C     8.40999985   7.79999971  52.23999786
C     9.77999973   7.49000025  52.45999908
C    14.00000000   7.44999981  53.29999924
C    14.57999992   8.14999962  52.21000290
C    15.92000008   8.53999996  52.25999832
C     5.98000002   7.81000042  52.88999939
H     5.55986214   7.22607946  52.07108688
H    10.53999996   8.39999962  50.61000061
H    11.98999977   6.40999985  54.88999939
H     9.48999977   6.34000015  55.61000061
H     7.03999996   6.72999954  55.05000305
H     8.14000034   8.34999943  51.33999634
H    16.43000031   9.02999973  51.45000076
H     5.32000017   7.69999981  53.75999832
H     5.97000027   8.89999962  52.70000076
S    17.28000069   7.30999994  55.77999878
C    19.96000099   7.65999985  55.13999939
C    18.64999962   7.88999987  54.80999756
C    18.19000053   8.40999985  53.55999756
C    19.12999916   8.76000023  52.61000061
C    20.52000046   8.65999985  52.90000153
C    21.52000046   9.15000057  52.02000046
C    22.86000061   8.96000004  52.27000427
C    23.23999786   8.31999969  53.47999954
C    22.29000092   7.92999983  54.38999939
C    20.88999939   8.03999996  54.13999939
C    16.76000023   8.23000050  53.34000015
C    16.13000107   7.65999985  54.47000122
C    14.81999969   7.20000029  54.40999985
C    24.68000031   7.97999954  53.81000137
H    25.03025436   8.50895405  54.69635773
H    20.26000023   7.17999983  56.06999969
H    18.85000038   9.15000057  51.63999939
H    21.14999962   9.53999996  51.06999969
H    23.64999962   9.03999996  51.52999878
H    22.56999969   7.55999994  55.38000107
H    14.50000000   6.56000042  55.21999741
H    25.15000153   8.25000000  52.85999680
H    24.77999878   6.91999960  54.08000183
