96

S    16.70999908  12.13999939  58.77999878
C    19.38999939  12.31999969  57.90999985
C    18.06999969  12.06999969  57.63000107
C    17.75000000  11.73999977  56.26999664
C    18.71000099  11.71000004  55.27999878
C    20.07999802  11.95000076  55.56999969
C    21.07999992  12.05000019  54.55999756
C    22.36999893  12.39999962  54.86999893
C    22.67000008  12.77999973  56.20999908
C    21.70999908  12.77999973  57.19999695
C    20.40999985  12.27000046  56.93000031
C    16.31000137  11.56000042  56.18000031
C    15.64000034  11.77999973  57.41000366
C    14.27999973  12.05999947  57.50999832
C    24.07999992  13.12999916  56.59999847
H    24.47127914  12.52529716  57.41812897
H    19.68000031  12.68000031  58.89999771
H    18.47999954  11.80999947  54.22000122
H    20.81999969  11.82999992  53.53000259
H    23.13999939  12.34000015  54.10999680
H    21.87999916  13.22000027  58.18000031
H    13.82999992  12.53000069  58.36999893
H    24.61999893  13.19000053  55.65000153
H    24.05999947  14.17000008  56.97000122
S    12.97999954  10.88999939  53.95000076
C    10.29000092  11.17000008  54.55999756
C    11.59000015  11.26999950  54.98000336
C    12.05000019  11.61000061  56.29000092
C    11.05000019  11.96000004  57.18000031
C     9.68000031  11.77999973  56.86999893
C     8.73000050  11.78999996  57.93000031
C     7.40000010  11.69000053  57.58999634
C     7.00000000  11.23999977  56.31000137
C     7.92000008  11.16000080  55.27999878
C     9.28999996  11.46000004  55.52000046
C    13.50000000  11.67000008  56.42000198
C    14.14999962  11.31000042  55.20999908
C    15.52999973  11.23999977  55.06000137
C     5.53999996  10.88999939  56.11000061
H     5.06410122  11.50085545  55.34288025
H    10.05000019  10.86999989  53.54000092
H    11.28000069  12.28000069  58.18999863
H     9.13000011  11.90000057  58.93000031
H     6.69000053  11.77999973  58.40999985
H     7.63999987  10.57000065  54.40999985
H    15.93999958  11.18000031  54.05000305
H     5.05000019  11.00999928  57.08000183
H     5.44000053   9.81999969  55.90000153
S    16.95999908  13.14000034  52.41000366
C    19.65999985  13.07999992  51.72999954
C    18.36000061  12.75000000  51.39999771
C    17.90999985  12.15000057  50.19000244
C    18.89999962  11.94000053  49.23999786
C    20.27000046  12.20000076  49.45999908
C    21.31999969  12.09000015  48.50000000
C    22.63999939  12.27000046  48.81999969
C    23.02000046  12.76000023  50.10000229
C    21.98999786  13.07000065  50.96000290
C    20.62999916  12.69000053  50.77000046
C    16.46999931  12.07999992  50.00000000
C    15.82999992  12.68000031  51.11999893
C    14.44000053  12.75000000  51.20999908
C    24.38999939  13.31999969  50.38000107
H    24.88746071  12.63776684  51.06933975
H    19.88000107  13.78000069  52.51999664
H    18.59000015  11.59000015  48.26000214
H    21.07999992  11.71000004  47.50999832
H    23.38999939  12.01000023  48.08000183
H    22.22999954  13.71999931  51.79999924
H    13.92000008  13.12000084  52.09000015
H    25.03000069  13.30000019  49.48999786
H    24.20999908  14.34999943  50.72000122
S    13.22999954  11.21000099  47.74000168
C    10.52999973  11.26000023  48.50000000
C    11.84000015  11.59000015  48.76999664
C    12.25999928  12.10000038  50.05000305
C    11.28000069  12.36999989  50.98999786
C     9.90999985  12.23000050  50.66999817
C     8.86999989  12.53999901  51.59000015
C     7.55999994  12.22000027  51.35000229
C     7.20000029  11.59000015  50.13000107
C     8.14000034  11.40999985  49.13999939
C     9.52000046  11.63000011  49.41999817
C    13.71000099  12.17000008  50.17000198
C    14.37000084  11.72000027  49.01000214
C    15.73999977  11.51000023  48.95000076
C     5.77000046  11.13000011  49.95999908
H     5.32255077  11.64136982  49.10771561
H    10.31000042  10.84000015  47.51999664
H    11.61000061  12.77999973  51.93999863
H     9.19999981  12.94000053  52.55000305
H     6.85999966  12.20000076  52.18000031
H     7.88000011  11.02000046  48.16999817
H    16.28999901  11.03999996  48.13000107
H     5.17000008  11.26999950  50.86999893
H     5.82000017  10.05000019  49.77000427
