96

S    16.90000153  12.53000069  58.52000427
C    19.54000092  12.55000019  57.80000305
C    18.29000092  12.05000019  57.52999878
C    18.02000046  11.36000061  56.31000137
C    19.04999924  11.13000011  55.41999817
C    20.36999893  11.56000042  55.70000076
C    21.51000023  11.28000069  54.89999771
C    22.78000069  11.76000023  55.13000107
C    23.01000214  12.61000061  56.24000168
C    21.94999886  12.76000023  57.11000061
C    20.62999916  12.25000000  56.93999863
C    16.56999969  11.31999969  56.18999863
C    15.81999969  11.89000034  57.25999832
C    14.46000004  12.15999985  57.30999756
C    24.31999969  13.30999947  56.50000000
H    24.88142014  12.79832458  57.28172684
H    19.64999962  13.15000057  58.69999695
H    18.96000099  10.48999977  54.54000092
H    21.35000038  10.71000004  53.99000168
H    23.67000198  11.61999893  54.51000214
H    22.13999939  13.45000076  57.91999817
H    14.01000023  12.63000011  58.18000031
H    24.96000099  13.22000027  55.61000061
H    24.11999893  14.35999966  56.76000214
S    13.38000107  10.62000084  53.79000092
C    10.65999985  10.52000046  54.55999756
C    11.95000076  10.92000008  54.79999924
C    12.30999947  11.54000092  56.04000092
C    11.30000019  11.90999985  56.90999985
C     9.94999981  11.54000092  56.72999954
C     8.85000038  11.76000023  57.61000061
C     7.60999966  11.21999931  57.36999893
C     7.30000019  10.55999947  56.14999771
C     8.34000015  10.34999943  55.27000046
C     9.65999985  10.80999947  55.52999878
C    13.75000000  11.65999985  56.20999908
C    14.45000076  11.13000011  55.10000229
C    15.84000015  11.05999947  55.01999664
C     5.86000013  10.19000053  55.87999725
H     5.38199472  10.74648476  55.07381058
H    10.51000023  10.03000069  53.60000229
H    11.61000061  12.32999992  57.87000275
H     8.94999981  12.32999992  58.53000259
H     6.78999996  11.36000061  58.08000183
H     8.05999947   9.84000015  54.34999847
H    16.20000076  10.69000053  54.06999969
H     5.25000000  10.32999992  56.77999878
H     5.82999992   9.15000057  55.52999878
S    13.67000008   8.65999985  50.83000183
C    11.07999992   8.27000046  51.55000305
C    12.35999966   7.81000042  51.69000244
C    12.81000042   7.17000008  52.88999939
C    11.87999916   6.80000019  53.83999634
C    10.50000000   7.09000015  53.62999725
C     9.48000050   6.56000042  54.47999954
C     8.17000008   6.71999979  54.09999847
C     7.73999977   7.42999983  52.95000076
C     8.71999931   8.05000019  52.21000290
C    10.10000038   7.86999989  52.50000000
C    14.23999977   7.36000013  53.11999893
C    14.81999969   8.10999966  52.05999756
C    16.15999985   8.47999954  52.09999847
C     6.25999975   7.55000019  52.64999771
H     5.91248560   6.82660198  51.91241455
H    10.72000027   8.86999989  50.72000122
H    12.06999969   6.17000008  54.69999695
H     9.81999969   5.95000029  55.31999969
H     7.50999975   6.15000010  54.73999786
H     8.48999977   8.69000053  51.36000061
H    16.69000053   8.85000038  51.23000336
H     5.59999990   7.36999989  53.50000000
H     6.01999998   8.59000015  52.43000031
S    17.46999931   7.11000013  55.61999893
C    20.15999985   7.32999992  54.84000397
C    18.82999992   7.55000019  54.56999969
C    18.37000084   8.11999989  53.34000015
C    19.29000092   8.56000042  52.41000366
C    20.66999817   8.43000031  52.71999741
C    21.61999893   8.82000065  51.73999786
C    22.93999863   8.69999981  52.11000061
C    23.42000008   8.28999996  53.39000320
C    22.50999832   7.79999971  54.29999924
C    21.14000130   7.78999996  53.92000198
C    16.92000008   8.11999989  53.22000122
C    16.29999924   7.48000050  54.33000183
C    14.96000099   7.13000011  54.29999924
C    24.89000130   8.43999958  53.68000031
H    25.05992508   8.61700439  54.74202347
H    20.43000031   6.78999996  55.73999786
H    18.98999977   8.80999947  51.39999771
H    21.24000168   9.26000023  50.81999969
H    23.64999962   9.18000031  51.44000244
H    22.79000092   7.30000019  55.21999741
H    14.42999935   6.80000019  55.19000244
H    25.22999954   9.31999969  53.13000107
H    25.42000008   7.53999996  53.34000015
