96

S    16.54000092  12.23000050  58.85000229
C    19.17000008  12.39999962  58.13000107
C    17.90999985  12.00000000  57.76000214
C    17.53999901  11.44000053  56.49000168
C    18.60000038  11.23999977  55.63000107
C    19.92000008  11.64999962  55.93000031
C    21.00000000  11.57999992  55.00999832
C    22.29999924  11.85999966  55.35999680
C    22.56999969  12.48000050  56.60999680
C    21.54999924  12.68000031  57.50999832
C    20.22999954  12.25999928  57.18999863
C    16.07999992  11.39000034  56.42000198
C    15.36999893  11.77999973  57.58999634
C    14.00000000  11.82999992  57.77000046
C    23.92000008  13.09000015  56.93000031
H    24.54213333  12.46071529  57.56643677
H    19.31999969  12.90999985  59.08000183
H    18.45999908  10.84000015  54.62999725
H    20.68000031  11.18000031  54.05000305
H    23.09999847  11.72000027  54.64000320
H    21.70000076  13.15999985  58.47999954
H    13.50999928  12.23999977  58.64999771
H    24.36000061  13.17999935  55.93000031
H    23.64000130  14.04999924  57.37999725
S    12.82999992  10.44999981  54.20000076
C    10.14999962  10.34999943  55.07999802
C    11.46000004  10.69000053  55.31000137
C    11.82000065  11.21000099  56.59000015
C    10.85999966  11.51000023  57.54000092
C     9.48000050  11.31000042  57.29999924
C     8.47000027  11.56000042  58.27000046
C     7.14999962  11.30000019  57.97000122
C     6.78999996  10.75000000  56.70999908
C     7.78999996  10.44000053  55.81999969
C     9.18000031  10.62999916  56.06999969
C    13.27000046  11.38000011  56.65999985
C    13.94000053  10.90000057  55.51000214
C    15.31999969  10.90000057  55.34999847
C     5.35000038  10.76000023  56.25000000
H     5.22175121  10.37525272  55.23825836
H     9.84000015   9.92000008  54.13000107
H    11.21000099  11.97000027  58.46000290
H     8.75000000  11.77000046  59.29999924
H     6.38000011  11.64999962  58.64999771
H     7.63000011  10.05000019  54.81999969
H    15.85000038  10.65000057  54.43999863
H     5.01999950  11.79999924  56.33999634
H     4.78999996  10.22999954  57.04000092
S    13.61999989   8.88000011  50.97000122
C    10.95000076   8.21000004  51.75000000
C    12.31999969   8.10000038  51.90000153
C    12.86000061   7.51999950  53.09000015
C    11.97999954   6.93000031  53.97999573
C    10.57000065   6.93000031  53.82999802
C     9.71000004   6.28000021  54.75000000
C     8.36000061   6.42000008  54.51000214
C     7.82000017   6.93000031  53.29999924
C     8.65999985   7.57999992  52.43000031
C    10.06000042   7.63999987  52.69000244
C    14.27999973   7.73000002  53.30999756
C    14.81999969   8.42000008  52.19999695
C    16.17000008   8.76999950  52.15000153
C     6.38999987   6.67999983  52.88999939
H     5.95106697   7.34547949  52.14664459
H    10.50000000   8.59000015  50.83000183
H    12.51999950   6.50000000  54.81999969
H    10.05000019   5.72000027  55.61000061
H     7.59999990   6.03999996  55.18000031
H     8.34999943   7.96000004  51.45000076
H    16.50000000   9.38000011  51.32999802
H     6.28000021   5.63000011  52.58999634
H     5.73000002   6.84000015  53.75999832
S    17.63000107   7.28999996  55.54000092
C    20.30999947   7.90999985  54.80999756
C    18.96000099   7.90000010  54.54000092
C    18.44000053   8.47999954  53.33000183
C    19.29000092   8.97999954  52.36000061
C    20.68000031   8.97000027  52.61000061
C    21.63999939   9.47000027  51.68000031
C    22.98000145   9.55999947  52.00000000
C    23.46999931   9.07999992  53.25000000
C    22.59000015   8.46000004  54.09999847
C    21.19999886   8.38000011  53.81000137
C    17.01000023   8.30999947  53.18000031
C    16.43000031   7.65999985  54.29000092
C    15.10000038   7.23999977  54.33000183
C    24.96000099   9.06999969  53.54000092
H    25.34365845   8.45898724  54.35705185
H    20.56999969   7.64999962  55.83000183
H    18.88000107   9.22000027  51.38000107
H    21.32999802   9.89999962  50.73999786
H    23.71999931  10.00000000  51.33999634
H    22.89999962   8.14999962  55.08999634
H    14.70000076   6.72999954  55.20999908
H    25.30999947  10.08999920  53.72000122
H    25.43999863   8.64000034  52.65999603
