96

S    16.52000046  12.64999962  58.85000229
C    19.27000046  12.79999924  58.36999893
C    18.02000046  12.46999931  57.90999985
C    17.79000092  11.97999954  56.59000015
C    18.85000038  11.72999954  55.73999786
C    20.15000153  12.15999985  56.10000229
C    21.31000137  11.90000057  55.33000183
C    22.57999802  12.23999977  55.75000000
C    22.73999977  12.75000000  57.06999969
C    21.64999962  13.05999947  57.84000015
C    20.34000015  12.68000031  57.43000031
C    16.36999893  11.82999992  56.30000305
C    15.57000065  12.25999928  57.39999771
C    14.19999981  12.44999981  57.37999725
C    24.07999992  13.32999992  57.48000336
H    24.73404312  12.53377247  57.83546066
H    19.44000053  13.20000076  59.36000061
H    18.64999962  11.35000038  54.75000000
H    21.30000114  11.31000042  54.40999985
H    23.40999985  11.98999977  55.11000061
H    21.71999931  13.47000027  58.83999634
H    13.67000008  12.58999920  58.31999969
H    24.46000099  13.96999931  56.66999817
H    23.90999985  14.02999973  58.29999924
S    13.26000023  11.13000011  53.81999969
C    10.53999996  10.77000046  54.47000122
C    11.76000023  11.32999992  54.75999832
C    12.05000019  11.87999916  56.04999924
C    11.03999996  11.90999985  57.00000000
C     9.71000004  11.54000092  56.68000031
C     8.64000034  11.75000000  57.60000229
C     7.36000013  11.42000008  57.25000000
C     7.04999971  10.88999939  55.97000122
C     8.13000011  10.57000065  55.17000198
C     9.48999977  10.88000107  55.41999817
C    13.48000050  12.06999969  56.24000168
C    14.29999924  11.59000015  55.19000244
C    15.67999935  11.50000000  55.13000107
C     5.61999989  10.62000084  55.56999969
H     5.31956911  11.22086239  54.71162415
H    10.38000011  10.39000034  53.47000122
H    11.28999901  12.27000046  57.98999786
H     8.89999962  12.10999966  58.60000229
H     6.56000042  11.73999977  57.91999817
H     7.95000029  10.01999950  54.25000000
H    16.25000000  11.21000099  54.25000000
H     5.01999950  10.95999908  56.43000031
H     5.53999996   9.53999996  55.40000153
S    17.35999870  13.07000065  52.63999939
C    20.05000114  13.15000057  52.00000000
C    18.77000046  12.79999924  51.60999680
C    18.43000031  12.28999996  50.31999969
C    19.42000008  12.00000000  49.40000153
C    20.73999786  12.30999947  49.80999756
C    21.78999901  12.15000057  48.85000229
C    23.08000183  12.53999901  49.12000275
C    23.35000038  13.23999977  50.31999969
C    22.42000198  13.28999996  51.32999802
C    21.09000015  12.84000015  51.10000229
C    16.97999954  12.22000027  50.19000244
C    16.23999977  12.56999969  51.35000229
C    14.86999989  12.69000053  51.52000046
C    24.77000046  13.68000031  50.61000061
H    25.28351212  13.09516716  51.37313461
H    20.20999908  13.82999992  52.84000015
H    19.20999908  11.64999962  48.39000320
H    21.48999977  11.96000004  47.81999969
H    23.88000107  12.57999992  48.39000320
H    22.69000053  13.83999920  52.22999954
H    14.47000027  12.89000034  52.50999832
H    25.29000092  13.67000008  49.64000320
H    24.77999878  14.72000027  50.94999695
S    13.71999931  11.10000038  48.06000137
C    11.03999996  11.16000080  48.66000366
C    12.30999947  11.52999973  49.03999710
C    12.68000031  12.17000008  50.27000046
C    11.68000031  12.27000046  51.22000122
C    10.34000015  11.94000053  50.90000153
C     9.27999973  12.06999969  51.84000015
C     7.97999954  11.79999924  51.45999908
C     7.64999962  11.26999950  50.19000244
C     8.65999985  11.10999966  49.27000046
C    10.00000000  11.44999981  49.58000183
C    14.11999893  12.32999992  50.40000153
C    14.80999947  11.77000046  49.29999924
C    16.18999863  11.75000000  49.13999939
C     6.26999950  10.77000046  49.84000397
H     5.93511343  11.43264771  49.04197311
H    10.85000038  10.72000027  47.69000244
H    11.78999996  12.46000099  52.28000259
H     9.47000027  12.51000023  52.81000137
H     7.17000008  11.92999935  52.16999817
H     8.56000042  10.59000015  48.30999756
H    16.69000053  11.32999992  48.27000046
H     5.58000040  10.85999966  50.68000031
H     6.34000015   9.68999958  49.65000153
