96

S    16.31999969  12.05000019  58.88000107
C    19.04000092  12.23000050  58.18000031
C    17.75000000  11.87000084  57.84999847
C    17.43000031  11.46999931  56.51000214
C    18.42000008  11.23999977  55.56999969
C    19.75000000  11.56000042  55.93000031
C    20.76999855  11.51000023  54.93999863
C    22.07999992  11.87000084  55.14999771
C    22.43999863  12.23000050  56.47999573
C    21.45999908  12.38999939  57.43000031
C    20.09000015  12.05999947  57.23999786
C    15.98999977  11.36999989  56.37000275
C    15.24000072  11.76000023  57.50999832
C    13.86000061  11.97000027  57.54000092
C    23.92999840  12.38000011  56.70000076
H    24.32061386  11.71950626  57.47412491
H    19.22000122  12.53999901  59.20000076
H    18.23999977  10.70000076  54.64000320
H    20.52000046  11.00999928  54.00000000
H    22.84000015  11.85999966  54.38000107
H    21.87000084  12.71000004  58.37999725
H    13.28999996  12.17000008  58.44999695
H    24.46000099  12.25000000  55.75000000
H    24.05999947  13.43999958  56.95999908
S    12.77999973  10.55999947  54.02999878
C    10.11999989  10.21000004  54.81999969
C    11.36000061  10.75000000  55.07999802
C    11.69999981  11.28999901  56.36000061
C    10.65000057  11.46999931  57.25000000
C     9.32999992  11.05000019  56.97999954
C     8.21000004  11.30000019  57.83000183
C     6.94000006  10.88999939  57.51999664
C     6.71000004  10.14999962  56.31999969
C     7.72000027  10.01000023  55.40999985
C     9.06000042  10.32999992  55.76000214
C    13.12999916  11.51000023  56.44000244
C    13.89000034  11.06999969  55.31999969
C    15.26999950  11.00999928  55.22999573
C     5.29999971   9.72999954  55.96000290
H     4.85064888  10.27920628  55.13262558
H     9.86999989   9.85000038  53.81999969
H    10.85000038  12.00000000  58.18000031
H     8.48999977  11.84000015  58.73000336
H     6.15000010  11.10999966  58.22999954
H     7.40999985   9.65999985  54.43000031
H    15.76000023  10.77000046  54.29000092
H     4.61000013   9.88000011  56.79999924
H     5.33999968   8.65999985  55.76000214
S    13.50999928   8.40999985  50.84999847
C    10.81999969   8.06999969  51.63999939
C    12.15999985   7.90000010  51.88999939
C    12.63000011   7.30999994  53.11000061
C    11.77000046   6.78999996  54.06000137
C    10.38000011   6.89000034  53.79000092
C     9.43000031   6.28999996  54.65999985
C     8.07999992   6.35999966  54.45999908
C     7.59999990   7.13000011  53.36999893
C     8.50000000   7.64999962  52.45999908
C     9.90999985   7.50999975  52.56999969
C    14.07999992   7.36000013  53.25000000
C    14.67000008   8.01999950  52.14000320
C    16.02000046   8.32999992  52.08000183
C     6.12999964   7.23000002  53.04000092
H     5.68866873   6.51817560  52.34241104
H    10.43000031   8.73999977  50.87999725
H    12.13000107   6.34000015  54.98000336
H     9.77000046   5.73999977  55.54000092
H     7.36999989   5.82999992  55.10000229
H     8.06999969   8.19999981  51.63000107
H    16.28999901   9.02999973  51.29000092
H     5.55999994   7.07000017  53.95999908
H     6.06999969   8.28999996  52.77000046
S    17.36999893   7.07999992  55.61000061
C    20.06000137   7.63999987  54.82999802
C    18.70000076   7.69000006  54.61000061
C    18.25000000   8.27999973  53.39000320
C    19.05999947   8.78000069  52.38999939
C    20.45000076   8.75000000  52.63000107
C    21.38999939   9.30000019  51.72000122
C    22.73999977   9.26000023  51.98999786
C    23.19000053   8.73000050  53.22999954
C    22.32999992   8.13000011  54.12000275
C    20.93000031   8.26000023  53.89999771
C    16.84000015   7.97999954  53.15000153
C    16.21999931   7.40999985  54.29999924
C    14.88000011   7.07000017  54.36000061
C    24.68000031   8.73000050  53.50999832
H    24.97198486   8.32406902  54.47853470
H    20.50000000   7.07000017  55.63999939
H    18.63999939   9.11000061  51.44000244
H    20.95999908   9.80000019  50.84999847
H    23.38000107   9.75000000  51.25999832
H    22.81999969   7.78999996  55.02999878
H    14.42000008   6.70000029  55.27000046
H    25.00000000   9.77999973  53.43999863
H    25.10999870   8.07999992  52.74000168
