96

S    16.52000046  12.15000057  58.76999664
C    19.29000092  12.13000107  58.23999786
C    18.00000000  11.84999943  57.84000015
C    17.70000076  11.38000011  56.52000046
C    18.68999863  11.43000031  55.56000137
C    20.03000069  11.72000027  55.93999863
C    21.04000092  11.38000011  55.00000000
C    22.34999847  11.54999924  55.38000107
C    22.63000107  12.28000069  56.56999969
C    21.68000031  12.48999977  57.55000305
C    20.35000038  12.03999996  57.29999924
C    16.28000069  11.26999950  56.23000336
C    15.53999996  11.71000004  57.36000061
C    14.15999985  11.77999973  57.45999908
C    24.07999992  12.56999969  56.88000107
H    24.42007828  11.98903370  57.73727798
H    19.64999962  12.55000019  59.16999817
H    18.46999931  11.07999992  54.55999756
H    20.78000069  10.98000050  54.02000046
H    23.16999817  11.30000019  54.72000122
H    22.03000069  12.93000031  58.47999954
H    13.61999989  12.10000038  58.34000015
H    24.63000107  12.35999966  55.94999695
H    24.07999992  13.63999939  57.11000061
S    13.01000023  10.59000015  53.85000229
C    10.31000042  10.95000076  54.51000214
C    11.63000011  10.98999977  54.88999939
C    12.00000000  11.42000008  56.20999908
C    11.05000019  11.75000000  57.15000153
C     9.70000076  11.46000004  56.83000183
C     8.69000053  11.56999969  57.83000183
C     7.40000010  11.18999958  57.51999664
C     7.03999996  10.67999935  56.25000000
C     7.97999954  10.59000015  55.25000000
C     9.31999969  10.98999977  55.52999878
C    13.45999908  11.39000034  56.31000137
C    14.14999962  11.13000011  55.10000229
C    15.53999996  11.02000046  55.06999969
C     5.64000034  10.11999989  56.07999802
H     5.12815094  10.63895798  55.26956940
H    10.10000038  10.62000084  53.48999786
H    11.38000011  12.07999992  58.13000107
H     8.96000004  11.84000015  58.83999634
H     6.57000017  11.28999901  58.20999908
H     7.82000017  10.21999931  54.23999786
H    16.03999901  10.84000015  54.12000275
H     5.00000000  10.14000034  56.97000122
H     5.77000046   9.04999924  55.84999847
S    13.50999928   8.48999977  50.94999695
C    10.90999985   8.10999966  51.83000183
C    12.23999977   7.77999973  51.95999908
C    12.76000023   7.16000032  53.13999939
C    11.87999916   6.48000002  53.96999741
C    10.50000000   6.72999954  53.82999802
C     9.53999996   6.24000025  54.75999832
C     8.19999981   6.48000002  54.51000214
C     7.69000006   7.16000032  53.36999893
C     8.61999989   7.78999996  52.56999969
C    10.01000023   7.59999990  52.80000305
C    14.18000031   7.36000013  53.36000061
C    14.67000008   8.05999947  52.22000122
C    15.98000050   8.50000000  52.27000427
C     6.19999981   7.40000010  53.27999878
H     5.83035421   7.10143995  52.29901886
H    10.48999977   8.67999935  51.00999832
H    12.17000008   6.00000000  54.89999771
H     9.86999989   5.80999947  55.70000076
H     7.55999994   6.05999994  55.27000046
H     8.28999996   8.47000027  51.79000092
H    16.31000137   9.10000038  51.42000198
H     5.56999969   6.97000027  54.06999969
H     6.03999996   8.45000076  53.53000259
S    17.52000046   6.94000006  55.56999969
C    20.13000107   7.42999983  54.79000092
C    18.78999901   7.46999979  54.45999908
C    18.35000038   8.09000015  53.23999786
C    19.29000092   8.61999989  52.37999725
C    20.68000031   8.52999973  52.64999771
C    21.61999893   9.07999992  51.73999786
C    22.92000008   9.18000031  52.15000153
C    23.38999939   8.39999962  53.23999786
C    22.50000000   7.78999996  54.09999847
C    21.09999847   7.92000008  53.88999939
C    16.90000153   8.05000019  53.22000122
C    16.31999969   7.37999964  54.33000183
C    14.98999977   7.03000021  54.45999908
C    24.82999992   8.71000004  53.60000229
H    25.25021935   8.09747696  54.39770508
H    20.38999939   6.84999990  55.68000031
H    18.95000076   9.04999924  51.44000244
H    21.40999985   9.43000031  50.72999954
H    23.55999947   9.72999954  51.45999908
H    22.93999863   7.39000034  55.00999832
H    14.59000015   6.56000042  55.35999680
H    24.93000031   9.80000019  53.75000000
H    25.43999863   8.47000027  52.72999573
