96

S    16.97000122  12.42000008  58.70999908
C    19.65999985  12.35999966  58.09999847
C    18.37000084  12.13000107  57.65999603
C    18.02999878  11.47999954  56.43000031
C    19.07999992  11.23999977  55.56999969
C    20.43000031  11.46000004  55.93999863
C    21.47999954  11.39000034  54.98000336
C    22.79000092  11.67000008  55.31000137
C    23.02999878  12.27000046  56.56999969
C    22.04999924  12.48999977  57.50999832
C    20.72999954  12.03999996  57.22000122
C    16.59000015  11.50000000  56.23000336
C    15.90000057  11.90000057  57.39999771
C    14.52000046  12.06999969  57.44999695
C    24.41999817  12.75000000  56.91999817
H    24.93049240  12.09061337  57.62192917
H    19.85999870  12.90999985  59.01000214
H    18.89000130  11.07999992  54.51000214
H    21.19999886  11.13000011  53.96999741
H    23.55999947  11.72999954  54.54999924
H    22.26000023  13.09999943  58.37999725
H    14.09000015  12.36999989  58.40999985
H    24.99000168  12.65999985  55.98999786
H    24.38999939  13.81000042  57.23999786
S    13.31999969  10.65000057  53.99000168
C    10.69000053  10.44999981  54.75000000
C    11.90999985  11.03999996  54.99000168
C    12.30999947  11.68000031  56.20999908
C    11.23999977  11.84000015  57.08000183
C     9.90999985  11.42000008  56.83000183
C     8.89999962  11.54999924  57.81999969
C     7.59000015  11.26000023  57.49000168
C     7.25000000  10.67999935  56.24000168
C     8.23999977  10.43000031  55.31999969
C     9.59999943  10.78999996  55.58000183
C    13.76000023  11.72999954  56.32999802
C    14.47000027  11.21000099  55.22999573
C    15.85999966  11.18000031  55.07999802
C     5.82000017  10.24000072  55.97999954
H     5.36392498  10.73883247  55.12485886
H    10.47000027   9.92999935  53.81999969
H    11.47999954  12.11999989  58.09999847
H     9.17000008  11.90999985  58.81000137
H     6.77999973  11.54000092  58.15000153
H     7.99000025   9.94999981  54.38999939
H    16.36999893  10.85999966  54.18000031
H     5.17000008  10.44999981  56.84000015
H     5.92000008   9.15999985  55.79000092
S    17.64999962  12.69999981  52.69000244
C    20.29999924  12.98999977  52.01000214
C    19.04000092  12.61999989  51.59000015
C    18.60000038  12.28000069  50.27000046
C    19.59000015  12.18000031  49.31000137
C    20.92000008  12.48999977  49.68000031
C    21.94999886  12.23999977  48.73000336
C    23.25000000  12.38000011  49.15000153
C    23.64999962  12.76999950  50.45999908
C    22.65999985  13.01000023  51.38000107
C    21.28999901  12.89999962  51.00999832
C    17.15999985  12.13000107  50.14999771
C    16.48999977  12.41000080  51.37000275
C    15.11999989  12.58999920  51.46999741
C    25.10000038  13.04999924  50.79000092
H    25.40554428  12.54549599  51.70663452
H    20.45999908  13.32999992  53.02999878
H    19.37000084  11.77999973  48.31999969
H    21.73000145  11.78999996  47.76000214
H    24.07999992  12.27000046  48.46000290
H    22.75000000  13.17000008  52.44999695
H    14.68999958  12.81999969  52.43999863
H    25.72999954  12.76000023  49.93999863
H    24.97999954  14.13000011  50.91999817
S    13.85000038  11.51000023  47.84000015
C    11.21999931  11.26999950  48.68000031
C    12.48999977  11.71000004  48.95999908
C    12.89000034  12.01000023  50.30000305
C    11.92000008  12.17000008  51.26999664
C    10.57999992  11.79999924  51.00000000
C     9.56999969  11.95000076  52.00000000
C     8.26000023  11.59000015  51.79999924
C     7.90999985  11.07999992  50.52000046
C     8.85000038  10.98999977  49.52000046
C    10.21999931  11.36000061  49.68000031
C    14.34000015  12.18999958  50.38000107
C    14.98000050  11.84999943  49.16999817
C    16.36999893  11.79999924  49.05000305
C     6.51999998  10.59000015  50.20999908
H     6.07940006  11.09455776  49.35012054
H    10.95000076  10.95999908  47.67000198
H    12.11999989  12.60000038  52.25000000
H     9.89999962  12.44999981  52.90000153
H     7.48000050  11.72000027  52.55000305
H     8.52000046  10.77999973  48.50999832
H    16.80999947  11.42000008  48.13000107
H     5.84000015  10.75000000  51.05999756
H     6.61000013   9.51000023  50.04000092
