96

S    16.67000008  12.92000008  58.74000168
C    19.40999985  12.81999969  58.18999863
C    18.12999916  12.48999977  57.83000183
C    17.86000061  11.73999977  56.63999939
C    18.89999962  11.33999920  55.80999756
C    20.20999908  11.78999996  56.10000229
C    21.25999832  11.49000072  55.18000031
C    22.56999969  11.84000015  55.41999817
C    22.84000015  12.48000050  56.65999985
C    21.84999847  12.82999992  57.55000305
C    20.48000145  12.53999901  57.29999924
C    16.43000031  11.61000061  56.44000244
C    15.65999985  12.15000057  57.50000000
C    14.27000046  12.13000107  57.50000000
C    24.23999977  12.90999985  57.04000092
H    24.64640808  12.48933125  57.95976639
H    19.75000000  13.19000053  59.15999985
H    18.88000107  10.86999989  54.82999802
H    20.89999962  11.03000069  54.27000046
H    23.31000137  11.63000011  54.65999985
H    22.15999985  13.34000015  58.44999695
H    13.63000011  12.48000050  58.29999924
H    24.93000031  12.69999981  56.20999908
H    24.06999969  13.99000072  56.93000031
S    13.28999996  10.93000031  53.88000107
C    10.52000046  10.70000076  54.52999878
C    11.79999924  11.11999989  54.82999802
C    12.15999985  11.69000053  56.09000397
C    11.13000011  12.05000019  56.93999863
C     9.78999996  11.69999981  56.63000107
C     8.73000050  11.95000076  57.54000092
C     7.46000004  11.49000072  57.29000092
C     7.11000013  10.85000038  56.06999969
C     8.11999989  10.57999992  55.18000031
C     9.47000027  10.95000076  55.44000244
C    13.59000015  11.71000004  56.35000229
C    14.37000084  11.26999950  55.24000168
C    15.73999977  11.06999969  55.34000015
C     5.68000031  10.47000027  55.73999786
H     5.35411263  10.89507103  54.79067612
H    10.31000042  10.15999985  53.61000061
H    11.49000072  12.28000069  57.94000244
H     9.02000046  12.23000050  58.54999924
H     6.71000004  11.61999893  58.06999969
H     7.92999983   9.94999981  54.31000137
H    16.28000069  10.80000019  54.43999863
H     5.03000021  10.95999908  56.46999741
H     5.53999996   9.39000034  55.79000092
S    17.21999931  12.18000031  52.70000076
C    19.96999931  12.31999969  52.02999878
C    18.65999985  12.10999966  51.66999817
C    18.31999969  11.90999985  50.28999710
C    19.34999847  11.94000053  49.36999893
C    20.71000099  12.07999992  49.72999954
C    21.77999878  12.02999973  48.79000092
C    23.08000183  11.97999954  49.23999786
C    23.42000008  12.34000015  50.56999969
C    22.40999985  12.46999931  51.50000000
C    21.05999947  12.23999977  51.11999893
C    16.87999916  11.82000065  50.08999634
C    16.14999962  11.96000004  51.30000305
C    14.78999996  12.25000000  51.39999771
C    24.79000092  12.86000061  50.91999817
H    25.18827438  12.41194153  51.83033752
H    20.19000053  12.72999954  53.02000046
H    19.04000092  11.87000084  48.33000183
H    21.65999985  11.96000004  47.70999908
H    23.85000038  11.87999916  48.47999954
H    22.60000038  12.84000015  52.50000000
H    14.29999924  12.75000000  52.22000122
H    25.38000107  12.58999920  50.04000092
H    24.79000092  13.94000053  51.07999802
S    13.56999969  11.46000004  47.78999710
C    10.86999989  11.32999992  48.56999969
C    12.18000031  11.59000015  48.88999939
C    12.55000019  11.96000004  50.21999741
C    11.59000015  12.09000015  51.19999695
C    10.25000000  11.76000023  50.90999985
C     9.21000004  11.90999985  51.86999893
C     7.92000008  11.63000011  51.47999573
C     7.55000019  11.14999962  50.20000076
C     8.55000019  10.95000076  49.27000046
C     9.89000034  11.31000042  49.59000015
C    14.01000023  11.95000076  50.27999878
C    14.75000000  11.76000023  49.08000183
C    16.13000107  11.82000065  48.90999603
C     6.11000013  10.84000015  49.85000229
H     5.67335033  11.40549660  49.02680588
H    10.57000065  11.16000080  47.52999878
H    11.84000015  12.55000019  52.15000153
H     9.51000023  12.36999989  52.81000137
H     7.17999983  11.79999924  52.25999832
H     8.36999989  10.57999992  48.27000046
H    16.59000015  11.59000015  47.95999908
H     5.40999985  11.05000019  50.66999817
H     6.12999964   9.77000046  49.61000061
