96

S    16.63999939  12.69999981  58.79000092
C    19.30999947  12.72999954  58.00000000
C    17.98999977  12.53000069  57.64999771
C    17.59000015  11.96000004  56.39999771
C    18.55999947  11.71000004  55.44000244
C    19.90999985  11.97999954  55.75000000
C    20.93000031  11.89000034  54.75999832
C    22.22999954  12.30999947  54.91000366
C    22.53999901  12.97000027  56.12999725
C    21.63999939  13.00000000  57.18000031
C    20.29999924  12.56000042  57.01000214
C    16.13999939  11.82999992  56.40999603
C    15.44000053  12.20999908  57.57999802
C    14.06000042  12.30000019  57.70000076
C    23.94000053  13.50000000  56.31999969
H    24.45308304  12.88715076  57.06112289
H    19.56999969  13.09999943  58.99000168
H    18.25000000  11.31000042  54.47999954
H    20.59999847  11.54999924  53.79000092
H    22.93999863  12.35000038  54.08000183
H    21.86000061  13.45000076  58.13999939
H    13.56999969  12.57999992  58.61999893
H    24.57999992  13.34000015  55.44000244
H    23.80000114  14.55000019  56.63000107
S    12.97000027  11.26999950  53.97999573
C    10.25000000  11.16000080  54.75999832
C    11.56000042  11.46999931  55.02999878
C    11.92000008  11.79999924  56.38000107
C    10.95999908  11.77999973  57.36999893
C     9.59000015  11.59000015  57.05999756
C     8.53999996  11.64999962  58.02000046
C     7.28999996  11.11999989  57.77999878
C     6.97000027  10.73999977  56.45000076
C     7.86999989  10.85999966  55.41999817
C     9.22000027  11.19999981  55.72999954
C    13.34000015  12.07999992  56.51000214
C    14.02999973  11.73999977  55.33000183
C    15.39999962  11.51000023  55.26000214
C     5.63000011  10.15999985  56.05999756
H     5.14625692  10.71488094  55.25613403
H     9.96000004  10.82999992  53.75999832
H    11.33999920  11.94000053  58.36999893
H     8.85999966  11.82000065  59.05000305
H     6.67000008  10.95000076  58.64999771
H     7.64999962  10.70000076  54.36000061
H    15.90999985  11.18999958  54.36000061
H     4.94000006   9.92999935  56.88000107
H     5.88999987   9.18000031  55.63999939
S    13.71999931   9.35000038  51.10000229
C    11.10999966   8.67999935  51.73999786
C    12.43999958   8.60999966  52.08000183
C    12.93000031   7.97999954  53.27000046
C    12.00000000   7.31999969  54.06000137
C    10.62000084   7.40999985  53.77999878
C     9.67000008   6.75000000  54.61000061
C     8.32999992   6.76000023  54.29000092
C     7.88999987   7.44000006  53.11999893
C     8.76000023   8.17000008  52.34000397
C    10.15999985   8.05000019  52.57999802
C    14.37000084   8.09000015  53.40000153
C    14.89999962   8.85999966  52.32999802
C    16.28000069   9.04999924  52.25000000
C     6.40999985   7.31999969  52.84999847
H     6.06826591   7.46238899  51.82479477
H    10.69000053   9.22999954  50.90999985
H    12.36999989   6.84000015  54.95999908
H    10.06000042   6.00000000  55.28999710
H     7.55999994   6.21000004  54.82999802
H     8.38000011   8.89999962  51.63999939
H    16.70999908   9.61999989  51.44000244
H     6.25999975   6.26999950  53.11000061
H     5.93999958   7.97999954  53.60000229
S    17.79000092   7.36999989  55.52000046
C    20.40999985   7.86000013  54.69999695
C    19.06999969   8.10999966  54.54000092
C    18.57999992   8.78999996  53.36999893
C    19.51000023   9.31999969  52.50000000
C    20.90999985   9.19999981  52.70999908
C    21.90000153   9.59000015  51.76000214
C    23.21000099   9.25000000  52.01000214
C    23.68999863   8.64999962  53.20999908
C    22.75000000   8.25000000  54.13000107
C    21.37000084   8.45000076  53.83999634
C    17.13000107   8.69000053  53.29999924
C    16.55999947   8.01999950  54.40999985
C    15.21000004   7.69000006  54.43999863
C    25.15000153   8.36000061  53.43000031
H    25.49817848   8.83608150  54.34663391
H    20.72999954   7.32999992  55.59999847
H    19.23999977   9.68999958  51.51000214
H    21.61000061  10.14999962  50.86999893
H    23.87000084   9.48000050  51.18000031
H    23.02000046   7.62000036  54.97000122
H    14.82999992   7.23000002  55.34999847
H    25.76999855   8.85000038  52.67000198
H    25.27000046   7.26999998  53.39000320
