96

S    17.09000015  12.35000038  58.90999603
C    19.82999992  12.03999996  58.34000015
C    18.52000046  11.96000004  57.93000031
C    18.20000076  11.43000031  56.63999939
C    19.23999977  11.26999950  55.72999954
C    20.59999847  11.51000023  56.04000092
C    21.63999939  11.38000011  55.07999802
C    22.93000031  11.57999992  55.52000046
C    23.22999954  12.09000015  56.81000137
C    22.22999954  12.17000008  57.75000000
C    20.88000107  11.87000084  57.41000366
C    16.76000023  11.33999920  56.50000000
C    16.00000000  11.80999947  57.61000061
C    14.63000107  12.02000046  57.63000107
C    24.63000107  12.58999920  57.08000183
H    25.06516266  12.01929569  57.90038681
H    19.96999931  12.48999977  59.31999969
H    19.00000000  10.75000000  54.81999969
H    21.47999954  11.10999966  54.03999710
H    23.81999969  11.44999981  54.91000366
H    22.57999802  12.46000099  58.74000168
H    14.18000031  12.53000069  58.47999954
H    25.20000076  12.36999989  56.17000198
H    24.64999962  13.67000008  57.28000259
S    13.43999958  10.55999947  54.15999985
C    10.70000076  10.81999969  54.65000153
C    11.98999977  11.16000080  54.98000336
C    12.39999962  11.59000015  56.27999878
C    11.39999962  11.84999943  57.18999863
C    10.05000019  11.49000072  56.97000122
C     8.98999977  11.64000034  57.91999817
C     7.72000027  11.21999931  57.63000107
C     7.36999989  10.77999973  56.31999969
C     8.36000061  10.70000076  55.37000275
C     9.71000004  11.03000069  55.65000153
C    13.82999992  11.61000061  56.56000137
C    14.53999996  11.06999969  55.45000076
C    15.93000031  10.93999958  55.45000076
C     5.97000027  10.32999992  55.94999695
H     5.67868471  10.70657825  54.96947479
H    10.50000000  10.46000004  53.63999939
H    11.75000000  12.09000015  58.18999863
H     9.19000053  11.78999996  58.97999573
H     6.96000004  11.16000080  58.40000153
H     8.27000046  10.29000092  54.36999893
H    16.44000053  10.57000065  54.55999756
H     5.21000004  10.64000034  56.65999985
H     6.01000023   9.23999977  55.98999786
S    13.56999969   8.84000015  51.05999756
C    10.86999989   8.15999985  51.70000076
C    12.22000027   8.13000011  51.97000122
C    12.72999954   7.51999950  53.15999985
C    11.84999943   6.97000027  54.08000183
C    10.46000004   7.00000000  53.82999802
C     9.57999992   6.51999998  54.84000397
C     8.22000027   6.51999998  54.61999893
C     7.69999981   6.98999977  53.39000320
C     8.53999996   7.57999992  52.47000122
C     9.94999981   7.55999994  52.60000229
C    14.17000008   7.55999994  53.29000092
C    14.75999928   8.38999939  52.29999924
C    16.06999969   8.84000015  52.44999695
C     6.25000000   6.70000029  53.11000061
H     5.96380091   6.97188902  52.09399414
H    10.47000027   8.63000011  50.80999756
H    12.18999958   6.50000000  55.00000000
H     9.92999935   6.28000021  55.84000015
H     7.57000017   6.12999964  55.40000153
H     8.05999947   8.01999950  51.59000015
H    16.46000099   9.52000046  51.70000076
H     6.19999981   5.60999966  53.22999954
H     5.59999990   7.17999983  53.86000061
S    17.52000046   6.91999960  55.58000183
C    20.20999908   7.53000021  54.85000229
C    18.85000038   7.67000008  54.66999817
C    18.36000061   8.38000011  53.52000427
C    19.27999878   8.89000034  52.63000107
C    20.68000031   8.76000023  52.77999878
C    21.70999908   9.19000053  51.88999939
C    23.05999947   9.15999985  52.14000320
C    23.46999931   8.53999996  53.34999847
C    22.55000114   7.96999979  54.20000076
C    21.14999962   8.06999969  53.95000076
C    16.92000008   8.23000050  53.37999725
C    16.31000137   7.42999983  54.38000107
C    14.96999931   7.05999947  54.33000183
C    24.92000198   8.64000034  53.75999832
H    25.06239128   8.29826546  54.78520203
H    20.58000183   6.94000006  55.68000031
H    19.01000023   9.26000023  51.63999939
H    21.35999870   9.86999989  51.11999893
H    23.64999962   9.73999977  51.44000244
H    22.80999947   7.30999994  55.02999878
H    14.55000019   6.44000006  55.11000061
H    25.15999985   9.71000004  53.66000366
H    25.61000061   8.19000053  53.02999878
