96

S    16.80999947  11.79999924  59.06000137
C    19.54000092  12.02000046  58.41999817
C    18.25000000  11.76000023  58.02999878
C    17.94999886  11.23000050  56.72999954
C    18.94000053  11.13999939  55.77000046
C    20.28000069  11.39999962  56.14999771
C    21.34000015  11.35000038  55.20000076
C    22.60999870  11.72000027  55.59000015
C    22.93999863  12.03999996  56.93000031
C    21.94999886  11.98999977  57.88000107
C    20.59000015  11.82999992  57.49000168
C    16.52000046  11.06999969  56.51000214
C    15.77000046  11.38000011  57.68000031
C    14.40000057  11.57999992  57.64999771
C    24.34000015  12.43999958  57.32999802
H    24.73946571  11.70526600  58.02906418
H    19.77000046  12.23000050  59.45999908
H    18.71000099  10.77999973  54.77000427
H    21.18999863  10.85999966  54.23999786
H    23.45000076  11.73999977  54.89999771
H    21.97999954  12.22000027  58.94000244
H    13.82999992  12.00000000  58.47000122
H    25.03999901  12.58999920  56.49000168
H    24.14999962  13.35000038  57.90999985
S    13.32999992  10.11000061  54.16999817
C    10.53999996  10.31999969  54.77000427
C    11.85999966  10.52999973  55.06999969
C    12.22000027  11.07999992  56.33999634
C    11.18999958  11.43000031  57.18999863
C     9.81999969  11.16000080  56.93000031
C     8.75000000  11.31999969  57.84999847
C     7.44999981  10.92000008  57.63000107
C     7.11999989  10.36000061  56.37000275
C     8.13000011  10.19000053  55.45000076
C     9.46000004  10.64000034  55.63999939
C    13.66000080  11.21000099  56.51000214
C    14.42999935  10.62999916  55.47000122
C    15.80999947  10.62999916  55.38999939
C     5.71000004   9.89999962  56.04999924
H     5.24184990  10.55966568  55.31940079
H    10.34999943   9.89999962  53.77999878
H    11.31999969  11.84000015  58.18999863
H     8.93999958  11.68000031  58.86000061
H     6.78999996  10.90999985  58.48999786
H     7.94000053   9.64999962  54.52000046
H    16.26000023  10.07999992  54.55999756
H     5.15999985   9.73999977  56.97999954
H     5.86999989   8.92000008  55.59000015
S    13.12000084   8.40999985  51.09000397
C    10.44999981   7.92999983  51.76000214
C    11.77999973   7.73000002  52.04000092
C    12.23999977   7.00000000  53.18000031
C    11.31999969   6.56000042  54.10999680
C     9.94000053   6.81999969  53.93000031
C     9.00000000   6.19000006  54.79999924
C     7.65999985   6.38999987  54.55999756
C     7.18999958   7.07999992  53.40999985
C     8.10999966   7.57000017  52.51999664
C     9.52000046   7.48000050  52.71999741
C    13.68999958   6.90000010  53.25000000
C    14.27000046   7.60999966  52.16999817
C    15.59999943   7.99000025  52.28000259
C     5.71000004   7.30000019  53.23999786
H     5.34551191   6.75684166  52.36808777
H    10.15999985   8.47999954  50.86000061
H    11.57999992   5.68000031  54.71000290
H     9.47000027   5.78000021  55.68999863
H     6.98000002   6.03999996  55.33000183
H     7.73999977   8.10999966  51.63999939
H    16.04999924   8.63000011  51.52999878
H     5.13999987   7.11000013  54.15999985
H     5.58000040   8.34000015  52.91999817
S    16.90999985   6.32999992  55.68000031
C    19.55000114   7.13000011  55.04000092
C    18.19000053   7.22000027  54.82999802
C    17.75000000   7.88000011  53.63999939
C    18.65999985   8.38999939  52.72999573
C    20.05000114   8.43000031  53.00000000
C    21.00000000   9.11000061  52.18000031
C    22.34999847   9.06000042  52.43999863
C    22.81999969   8.19000053  53.46000290
C    21.90000153   7.59000015  54.29999924
C    20.48999977   7.73000002  54.18000031
C    16.31999969   7.68000031  53.43999863
C    15.76000023   6.81999969  54.40999985
C    14.44000053   6.38999987  54.31000137
C    24.31999969   8.07999992  53.57999802
H    24.71105194   8.32174206  54.56829834
H    19.85000038   6.44000006  55.81999969
H    18.40999985   8.84000015  51.77999878
H    20.43999863   9.71000004  51.46999741
H    23.00000000   9.53999996  51.70999908
H    22.27999878   6.86999989  55.01999664
H    13.96000004   5.84999990  55.13000107
H    24.84000015   8.71999931  52.85999680
H    24.57999992   7.05999947  53.25000000
