96

S    16.25000000  12.81000042  58.50999832
C    18.94000053  12.92000008  57.81000137
C    17.69000053  12.39999962  57.56000137
C    17.35000038  11.78999996  56.31000137
C    18.31999969  11.59000015  55.34999847
C    19.67000008  11.90999985  55.65000153
C    20.75000000  11.54000092  54.80999756
C    22.03000069  11.87999916  55.19000244
C    22.34000015  12.57999992  56.38000107
C    21.28999901  13.04999924  57.14000320
C    19.96000099  12.61999989  56.86999893
C    15.90999985  11.78999996  56.07999802
C    15.18000031  12.28999996  57.18999863
C    13.80000019  12.28999996  57.25000000
C    23.75000000  12.94999981  56.79000092
H    24.22637367  12.25321293  57.47967911
H    19.12999916  13.61999989  58.61999893
H    18.05999947  11.21999931  54.36000061
H    20.48000145  11.10000038  53.85000229
H    22.82999992  11.46999931  54.56999969
H    21.44000053  13.63999939  58.04000092
H    13.30000019  12.41000080  58.20999908
H    24.34999847  12.86999893  55.86999893
H    23.75999832  13.93000031  57.27000427
S    12.64000034  10.85000038  53.69999695
C     9.94999981  10.62000084  54.52999878
C    11.25000000  10.98000050  54.79000092
C    11.64999962  11.42000008  56.10000229
C    10.67999935  11.61000061  57.05999756
C     9.31999969  11.35000038  56.79999924
C     8.26000023  11.77999973  57.65999603
C     6.98000002  11.39000034  57.36999893
C     6.63000011  10.57000065  56.25999832
C     7.60999966  10.40999985  55.30000305
C     8.96000004  10.80000019  55.52000046
C    13.07000065  11.76000023  56.17000198
C    13.75000000  11.36999989  54.99000168
C    15.13000011  11.44000053  54.97000122
C     5.19000006  10.19999981  56.00000000
H     4.76508331  10.76655579  55.17140961
H     9.85999966  10.01000023  53.62999725
H    10.95000076  12.13000107  57.97999954
H     8.46000004  12.28999996  58.59000397
H     6.17999983  11.61000061  58.06999969
H     7.36999989   9.92000008  54.36000061
H    15.67000008  11.25000000  54.03999710
H     4.63999987  10.39999962  56.91999817
H     5.12000036   9.13999939  55.72000122
S    17.19000053  12.97000027  52.49000168
C    19.88999939  12.89000034  51.77000046
C    18.59000015  12.56999969  51.47999573
C    18.30000114  11.87000084  50.26000214
C    19.29999924  11.68000031  49.33000183
C    20.65999985  11.89000034  49.65999985
C    21.80999947  11.54999924  48.88000107
C    23.09999847  11.77999973  49.29000092
C    23.34000015  12.38999939  50.54000092
C    22.29000092  12.69000053  51.38999939
C    20.95999908  12.48000050  50.93999863
C    16.84999847  11.72000027  50.18000031
C    16.10999870  12.28000069  51.25999832
C    14.73999977  12.48000050  51.25999832
C    24.76000023  12.61000061  51.00999832
H    25.02349281  12.06165028  51.91442108
H    20.17999840  13.26000023  52.75000000
H    19.12999916  11.31000042  48.31999969
H    21.64999962  10.97000027  47.97000122
H    23.95999908  11.42000008  48.73000336
H    22.44999886  13.17000008  52.35000229
H    14.19999981  12.63000011  52.18999863
H    25.51000214  12.56000042  50.20999908
H    24.84000015  13.64999962  51.36000061
S    13.69999981  11.02000046  47.70999908
C    11.00999928  10.69000053  48.40000153
C    12.27000046  11.10999966  48.75000000
C    12.61000061  11.84000015  49.93999863
C    11.56999969  12.10999966  50.81999969
C    10.25000000  11.77999973  50.44000244
C     9.17000008  12.22000027  51.25999832
C     7.86999989  11.94000053  50.94999695
C     7.53999996  11.23000050  49.75999832
C     8.55000019  10.93999958  48.88000107
C     9.92000008  11.13000011  49.20000076
C    14.02999973  12.10999966  50.11000061
C    14.75999928  11.59000015  49.02000046
C    16.13999939  11.39000034  49.02999878
C     6.17999983  10.65999985  49.40999985
H     5.66749668  11.36469173  48.75513458
H    10.93000031  10.08999920  47.50000000
H    11.73999977  12.61999989  51.77000046
H     9.39000034  12.35999966  52.31999969
H     7.05999947  12.00000000  51.68000031
H     8.47999954  10.42000008  47.91999817
H    16.61999893  11.23000050  48.06999969
H     5.63000011  10.64000034  50.35999680
H     6.26999950   9.63999939  49.00000000
