96

S    16.65999985  12.46000099  58.68000031
C    19.32999992  12.57999992  57.97999954
C    18.06999969  12.10999966  57.67000198
C    17.78000069  11.61999893  56.36000061
C    18.79999924  11.54999924  55.43000031
C    20.10999870  11.97999954  55.72000122
C    21.14000130  12.05000019  54.72999954
C    22.39999962  12.51000023  55.01999664
C    22.69000053  12.92000008  56.33999634
C    21.70999908  12.93000031  57.30999756
C    20.38999939  12.46999931  57.04000092
C    16.34000015  11.56999969  56.18000031
C    15.62000084  11.98999977  57.32999802
C    14.23999977  12.15999985  57.42000198
C    24.07999992  13.38999939  56.72999954
H    24.46257782  12.85863972  57.60142899
H    19.47000122  13.14000034  58.89999771
H    18.54999924  11.28000069  54.40000153
H    20.82999992  11.79999924  53.70999908
H    23.18000031  12.63000011  54.27999878
H    21.94999886  13.32999992  58.29000092
H    13.71999931  12.41000080  58.34000015
H    24.84999847  13.17999935  55.97999954
H    24.05999947  14.46000004  56.93999863
S    13.07999992  10.93999958  53.83999634
C    10.43000031  10.60999966  54.58000183
C    11.69999981  11.02000046  54.93999863
C    12.01000023  11.63000011  56.19999695
C    11.02000046  11.71000004  57.15999985
C     9.72000027  11.23999977  56.88000107
C     8.60000038  11.35000038  57.76000214
C     7.28999996  11.03999996  57.47000122
C     7.05999947  10.39999962  56.23000336
C     8.10000038  10.26000023  55.33000183
C     9.43000031  10.71000004  55.56999969
C    13.45000076  11.82000065  56.31000137
C    14.15999985  11.50000000  55.13000107
C    15.53999996  11.39000034  55.04000092
C     5.65000010  10.11999989  55.75000000
H     5.27361441  10.78045082  54.96882248
H    10.25000000  10.21000004  53.59000397
H    11.31999969  12.11999989  58.11999893
H     8.82999992  11.92000008  58.66000366
H     6.56000042  11.31999969  58.22000122
H     7.95000029   9.84000015  54.34999847
H    16.11999893  11.31999969  54.12000275
H     4.98000002  10.18000031  56.63000107
H     5.64000034   9.06999969  55.45000076
S    17.38999939  12.84000015  52.52999878
C    20.03000069  13.20000076  51.65000153
C    18.76000023  12.71999931  51.40999603
C    18.38000107  12.22000027  50.12000275
C    19.37999916  12.22000027  49.15999985
C    20.72999954  12.56000042  49.41999817
C    21.83000183  12.43999958  48.53000259
C    23.12000084  12.74000072  48.88999939
C    23.38999939  13.38000107  50.13000107
C    22.37999916  13.56999969  51.04000092
C    21.07999992  13.09999943  50.70000076
C    16.94000053  12.05000019  49.97000122
C    16.29999924  12.38000011  51.19999695
C    14.91000080  12.39999962  51.23000336
C    24.80999947  13.76000023  50.48999786
H    25.25136948  13.16201591  51.28731155
H    20.20000076  13.60000038  52.63999939
H    19.11999893  12.02999973  48.11999893
H    21.56999969  12.07999992  47.52999878
H    23.88000107  12.41000080  48.18999863
H    22.56999969  14.11000061  51.95999908
H    14.32999992  12.71000004  52.09000015
H    25.35000038  13.53000069  49.56999969
H    24.86000061  14.84000015  50.70000076
S    13.64999962  11.65999985  47.55000305
C    11.00000000  11.11999989  48.36000061
C    12.25999928  11.61000061  48.64999771
C    12.69000053  11.95000076  49.97000122
C    11.72000027  12.15999985  50.93999863
C    10.36000061  11.96000004  50.63999939
C     9.36999989  12.02000046  51.65999985
C     8.10999966  11.54999924  51.37000275
C     7.73999977  10.98999977  50.12000275
C     8.73000050  10.82999992  49.19000244
C    10.03999901  11.36000061  49.36999893
C    14.13000011  12.10000038  50.10000229
C    14.80999947  11.84000015  48.88000107
C    16.20000076  11.87000084  48.80000305
C     6.32000017  10.50000000  49.89999771
H     5.70684814  11.22009659  49.35814285
H    10.76000023  10.46000004  47.52999878
H    11.96000004  12.36999989  51.97999954
H     9.72999954  12.38000011  52.62000275
H     7.36000013  11.64999962  52.15000153
H     8.48999977  10.52999973  48.16999817
H    16.84000015  11.87000084  47.91999817
H     5.89999962  10.29000092  50.89000320
H     6.30000019   9.52999973  49.38999939
