96

S    16.62999916  12.44999981  58.95999908
C    19.34000015  12.57999992  58.29999924
C    18.06999969  12.15000057  57.97000122
C    17.70000076  11.64999962  56.68000031
C    18.73999977  11.54000092  55.77000046
C    20.09000015  11.82999992  56.07999802
C    21.11999893  11.72000027  55.10000229
C    22.40999985  12.13999939  55.34999847
C    22.67999840  12.67000008  56.63999939
C    21.73000145  12.81000042  57.62000275
C    20.39999962  12.36999989  57.37999725
C    16.27000046  11.44999981  56.56000137
C    15.52999973  12.00000000  57.63999939
C    14.14000034  12.00000000  57.61000061
C    24.07999992  13.12000084  57.02000046
H    24.46545601  12.55609226  57.86943054
H    19.54000092  12.97999954  59.27999878
H    18.46999931  11.07999992  54.81999969
H    20.76000023  11.33999920  54.15000153
H    23.21000099  12.07999992  54.62999725
H    22.06000137  13.25000000  58.54999924
H    13.66000080  12.30999947  58.54000092
H    24.73999977  13.09000015  56.13999939
H    24.01000023  14.19000053  57.25999832
S    13.15000057  10.67999935  54.02999878
C    10.48999977  10.29999924  54.68000031
C    11.71000004  10.82999992  55.06000137
C    12.00000000  11.44000053  56.31999969
C    10.93000031  11.65999985  57.15999985
C     9.61999989  11.33999920  56.73999786
C     8.52000046  11.68000031  57.56999969
C     7.21000004  11.32999992  57.31999969
C     6.98000002  10.55999947  56.13999939
C     8.01999950  10.25000000  55.30000305
C     9.39000034  10.57999992  55.52999878
C    13.43000031  11.61999893  56.46999741
C    14.21000004  11.16000080  55.37000275
C    15.59999943  11.10999966  55.38000107
C     5.58000040  10.05000019  55.90999985
H     5.15899849  10.59944248  55.06799698
H    10.25000000   9.70000076  53.81000137
H    11.13999939  12.02999973  58.15999985
H     8.73000050  12.28999996  58.44999695
H     6.46000004  11.40999985  58.09000015
H     7.83999968   9.61999989  54.43000031
H    16.07999992  10.81999969  54.45000076
H     4.94999981  10.15999985  56.81000137
H     5.69000006   8.97999954  55.68000031
S    16.93000031  12.86000061  52.85999680
C    19.60000038  12.94000053  52.16999817
C    18.34000015  12.50000000  51.84000015
C    18.02000046  11.90000057  50.58000183
C    19.04000092  11.59000015  49.69999695
C    20.31999969  12.13999939  49.94999695
C    21.38999939  11.97999954  49.02000046
C    22.63000107  12.48999977  49.29000092
C    22.93999863  13.17000008  50.48999786
C    21.96000099  13.21000004  51.45999908
C    20.63999939  12.75000000  51.22000122
C    16.56999969  11.90000057  50.38000107
C    15.86999989  12.30999947  51.55000305
C    14.48999977  12.43999958  51.62000275
C    24.30999947  13.71999931  50.83000183
H    24.74505043  13.19223499  51.67870331
H    19.76000023  13.43000031  53.13000107
H    18.72999954  11.18000031  48.75000000
H    21.09999847  11.44000053  48.11999893
H    23.31000137  12.30999947  48.44999695
H    22.11999893  13.94999981  52.23999786
H    14.02999973  12.84000015  52.51999664
H    24.89000130  13.71000099  49.89999771
H    24.25000000  14.80000019  51.04000092
S    13.38000107  11.25000000  47.97000122
C    10.62999916  11.54000092  48.50999832
C    11.94000053  11.54999924  48.95000076
C    12.30000019  11.82000065  50.31000137
C    11.30000019  11.84999943  51.25999832
C     9.94999981  11.68000031  50.86999893
C     8.89999962  11.80999947  51.81999969
C     7.59000015  11.63000011  51.45000076
C     7.26000023  11.31000042  50.10000229
C     8.23000050  11.44000053  49.13000107
C     9.59000015  11.64000034  49.47000122
C    13.73000050  12.02000046  50.52999878
C    14.42000008  11.64000034  49.34999847
C    15.80000019  11.44000053  49.31000137
C     5.88000011  11.03000069  49.55999756
H     5.62300730  11.43690491  48.58199692
H    10.42000008  11.44000053  47.44999695
H    11.50000000  11.98999977  52.31999969
H     9.23999977  12.01000023  52.83000183
H     6.84000015  11.56999969  52.22999954
H     7.96999979  11.26999950  48.09000015
H    16.26000023  11.00000000  48.43999863
H     5.25000000  11.39999962  50.37000275
H     5.73000002   9.94000053  49.52000046
