96

S    15.80999947  12.18999958  58.94000244
C    18.55999947  12.28000069  58.30999756
C    17.26000023  12.03999996  57.94000244
C    16.94000053  11.61999893  56.59999847
C    17.98999977  11.36999989  55.72999954
C    19.31999969  11.67000008  56.10000229
C    20.36999893  11.47999954  55.14999771
C    21.65999985  11.82000065  55.47000122
C    22.01999855  12.18999958  56.79000092
C    21.02000046  12.38999939  57.71999741
C    19.64999962  12.11999989  57.42000198
C    15.51000023  11.49000072  56.37000275
C    14.78000069  11.84999943  57.54000092
C    13.40000057  11.94000053  57.48000336
C    23.36999893  12.76000023  57.14000320
H    24.11277390  12.05966949  57.52199936
H    18.71000099  12.74000072  59.29000092
H    17.80999947  10.84000015  54.79999924
H    19.98999977  11.28999901  54.13999939
H    22.44999886  11.89000034  54.73999786
H    21.25999832  12.94999981  58.61999893
H    12.82999992  12.18000031  58.36999893
H    23.85999870  13.15000057  56.24000168
H    23.22999954  13.60000038  57.83000183
S    12.50000000  10.67999935  53.76999664
C     9.77999973  10.59999943  54.45999908
C    11.06999969  10.93999958  54.79000092
C    11.36000061  11.52999973  56.05999756
C    10.36999893  11.63000011  57.01000214
C     9.02000046  11.26999950  56.76000214
C     8.01000023  11.23999977  57.76000214
C     6.76000023  10.78999996  57.42000198
C     6.43000031  10.36999893  56.10000229
C     7.40999985  10.44000053  55.14999771
C     8.76999950  10.75000000  55.44000244
C    12.79000092  11.73999977  56.23000336
C    13.50999928  11.31999969  55.07999802
C    14.88999939  11.17000008  55.15999603
C     5.01999950   9.98000050  55.72999954
H     4.71959496  10.53789520  54.84309006
H     9.53999996  10.06999969  53.54000092
H    10.57999992  11.96000004  58.02999878
H     8.19000053  11.77000046  58.69999695
H     5.98999977  10.77000046  58.18999863
H     7.17999983  10.24000072  54.09999847
H    15.44999981  10.71000004  54.34999847
H     4.35999966  10.18000031  56.59000015
H     4.88000011   8.93000031  55.44000244
S    13.03999996   8.82999992  51.06999969
C    10.39000034   8.17000008  51.72999954
C    11.72999954   8.05000019  51.97999954
C    12.22000027   7.36999989  53.13999939
C    11.31999969   6.77999973  54.01000214
C     9.92999935   6.96000004  53.81999969
C     9.00000000   6.44999981  54.75999832
C     7.63999987   6.44999981  54.51000214
C     7.20000029   6.97000027  53.27000046
C     8.03999996   7.55999994  52.36000061
C     9.44000053   7.59000015  52.62000275
C    13.66000080   7.51999950  53.26000214
C    14.27999973   8.22000027  52.18999863
C    15.60999966   8.60999966  52.14000320
C     5.82999992   6.57000017  52.77000046
H     5.44690275   7.20140076  51.96833420
H    10.05000019   8.78000069  50.89000320
H    11.68000031   6.15999985  54.82999802
H     9.32999992   5.84000015  55.59999847
H     7.00000000   5.88999987  55.19000244
H     7.68000031   8.14999962  51.52000046
H    16.01000023   9.03999996  51.23000336
H     5.82000017   5.50000000  52.56000137
H     5.19999981   6.69000053  53.64999771
S    16.92000008   7.22000027  55.61000061
C    19.64999962   7.69999981  55.02999878
C    18.31999969   7.82999992  54.68999863
C    17.82999992   8.46000004  53.50000000
C    18.76000023   8.90999985  52.58999634
C    20.13999939   8.86999989  52.88999939
C    21.14000130   9.35000038  52.00000000
C    22.46999931   9.22000027  52.34000397
C    22.95000076   8.59000015  53.50999832
C    21.97999954   8.10999966  54.36000061
C    20.58000183   8.23999977  54.10999680
C    16.44000053   8.19999981  53.20000076
C    15.80999947   7.48000050  54.25000000
C    14.47999954   7.07999992  54.31000137
C    24.41999817   8.30000019  53.69999695
H    24.86240768   8.82089996  54.54913712
H    19.88999939   7.25000000  55.98999786
H    18.32999992   9.19000053  51.63000107
H    20.79000092   9.68000031  51.03000259
H    23.21000099   9.55999947  51.62000275
H    22.22999954   7.44000006  55.18000031
H    14.22999954   6.39999962  55.11000061
H    24.90999985   8.56999969  52.76000214
H    24.56000137   7.22000027  53.85000229
