96

S    16.94000053  12.30999947  58.83999634
C    19.63000107  12.34000015  58.11999893
C    18.32999992  12.05000019  57.77000046
C    17.94999886  11.54999924  56.47999573
C    18.95000076  11.36000061  55.54000092
C    20.30999947  11.61999893  55.86000061
C    21.30000114  11.72999954  54.84000397
C    22.56999969  12.18000031  55.08999634
C    22.90999985  12.51999950  56.43000031
C    22.03000069  12.34000015  57.47000122
C    20.65999985  12.09000015  57.16999817
C    16.51000023  11.54999924  56.31000137
C    15.84000015  11.85999966  57.51999664
C    14.46000004  11.95000076  57.55000305
C    24.33000183  12.88000011  56.79999924
H    24.67085648  12.42552567  57.73025131
H    19.86999893  12.76999950  59.08000183
H    18.81000137  11.18000031  54.47999954
H    21.01000023  11.39999962  53.85000229
H    23.26999855  12.25999928  54.26000214
H    22.20999908  12.35000038  58.54000092
H    14.01000023  12.23000050  58.50000000
H    24.96000099  12.53000069  55.97000122
H    24.38999939  13.96999931  56.93000031
S    13.26000023  10.88000107  53.95999908
C    10.55999947  10.77000046  54.62999725
C    11.84000015  11.09000015  55.00999832
C    12.20999908  11.51999950  56.31999969
C    11.21999931  11.63000011  57.28000259
C     9.89999962  11.26999950  56.93999863
C     8.80000019  11.36000061  57.84000015
C     7.49000025  11.16000080  57.45999908
C     7.22000027  10.57000065  56.19999695
C     8.21000004  10.44999981  55.26000214
C     9.53999996  10.84000015  55.61000061
C    13.66000080  11.63000011  56.45000076
C    14.37000084  11.16000080  55.31999969
C    15.76000023  11.11999989  55.20999908
C     5.78999996  10.22999954  55.84999847
H     5.32120275  10.85506248  55.08998108
H    10.31000042  10.26999950  53.69999695
H    11.47999954  12.02999973  58.26000214
H     9.13000011  11.56999969  58.85000229
H     6.67000008  11.13000011  58.16999817
H     8.05999947  10.11999989  54.22999954
H    16.18999863  10.72999954  54.29999924
H     5.35000038  10.25000000  56.84999847
H     5.68000031   9.17000008  55.58000183
S    17.10000038  12.84999943  52.75000000
C    19.79999924  13.05999947  51.95999908
C    18.50000000  12.71999931  51.65999985
C    18.15999985  12.18999958  50.37000275
C    19.19000053  12.11999989  49.45000076
C    20.52999878  12.42000008  49.79000092
C    21.63000107  12.07999992  48.95000076
C    22.93000031  12.38000011  49.29000092
C    23.28000069  13.00000000  50.52000046
C    22.22999954  13.40999985  51.31000137
C    20.89999962  12.97000027  51.06999969
C    16.72000122  12.05000019  50.21999741
C    16.03000069  12.42000008  51.39999771
C    14.63999939  12.43000031  51.43000031
C    24.70000076  13.38000107  50.86000061
H    25.18408394  12.68235207  51.54341125
H    19.95000076  13.52000046  52.93000031
H    18.95000076  11.54999924  48.55999756
H    21.38999939  11.63000011  47.98999786
H    23.75999832  12.17000008  48.61999893
H    22.50000000  14.01000023  52.18000031
H    14.06999969  12.72999954  52.30999756
H    25.27000046  13.57999992  49.94999695
H    24.70000076  14.30999947  51.44000244
S    13.56999969  11.05999947  47.83000183
C    10.85999966  11.00999928  48.46000290
C    12.13999939  11.31999969  48.85000229
C    12.46000099  11.82000065  50.14999771
C    11.44000053  12.03999996  51.05999756
C    10.10000038  11.77999973  50.68000031
C     9.07999992  11.95000076  51.66999817
C     7.82999992  11.54000092  51.26999664
C     7.48000050  11.10999966  49.95999908
C     8.47000027  10.92000008  49.02000046
C     9.81000042  11.21999931  49.38999939
C    13.89999962  11.97999954  50.33000183
C    14.60999966  11.52999973  49.19000244
C    16.00000000  11.47999954  49.16999817
C     6.05000019  10.65999985  49.71000290
H     5.57182169  11.33087635  48.99629974
H    10.67999935  10.57999992  47.48000336
H    11.71000004  12.35999966  52.05999756
H     9.34000015  12.30999947  52.65999603
H     7.04999971  11.67000008  52.01000214
H     8.19000053  10.53999996  48.04999924
H    16.63999939  11.18999958  48.34000015
H     5.46999979  10.73999977  50.63999939
H     6.01000023   9.63999939  49.33000183
