96

S    16.43000031  12.61000061  58.60000229
C    19.11999893  12.58999920  57.97999954
C    17.85000038  12.18000031  57.63999939
C    17.47999954  11.64999962  56.36000061
C    18.45999908  11.57999992  55.38999939
C    19.78000069  11.94000053  55.72999954
C    20.81999969  11.68000031  54.79000092
C    22.13000107  11.84000015  55.18000031
C    22.47999954  12.39999962  56.44000244
C    21.51000023  12.71999931  57.36000061
C    20.15000153  12.50000000  57.00000000
C    16.05999947  11.38000011  56.20999908
C    15.39000034  11.96000004  57.31999969
C    14.01000023  12.13999939  57.29000092
C    23.94000053  12.68000031  56.72000122
H    24.32464790  12.19562721  57.61751556
H    19.34000015  12.79999924  59.02000046
H    18.30000114  10.92000008  54.54000092
H    20.55999947  11.39000034  53.76999664
H    22.92000008  11.54999924  54.50000000
H    21.76000214  13.07999992  58.34999847
H    13.53000069  12.76999950  58.04000092
H    24.61999893  12.34000015  55.93999863
H    24.05999947  13.73000050  57.00000000
S    12.93000031  10.80999947  53.69999695
C    10.21000004  10.69000053  54.40000153
C    11.49000072  11.06999969  54.71000290
C    11.84999943  11.68000031  55.96000290
C    10.81999969  11.98999977  56.83000183
C     9.51000023  11.49000072  56.65999985
C     8.47999954  11.77999973  57.60000229
C     7.18999958  11.46999931  57.25000000
C     6.84000015  10.85999966  56.02000427
C     7.86000013  10.47000027  55.18000031
C     9.21000004  10.85999966  55.38999939
C    13.28999996  11.73999977  56.16000366
C    14.00000000  11.19999981  55.06000137
C    15.36000061  10.92000008  55.08999634
C     5.40999985  10.59999943  55.61000061
H     4.94787502  11.25408459  54.87059784
H    10.06000042  10.39000034  53.36999893
H    11.02000046  12.44999981  57.78999710
H     8.71999931  12.27000046  58.54000092
H     6.44000006  11.82000065  57.95999908
H     7.69999981   9.98000050  54.22999954
H    15.88999939  10.64000034  54.18000031
H     4.86999989  10.85999966  56.52000046
H     5.27999973   9.52999973  55.40000153
S    17.13000107  12.90999985  52.58999634
C    19.89999962  12.93000031  52.00000000
C    18.60000038  12.64999962  51.63999939
C    18.22000122  12.02000046  50.40999985
C    19.23999977  11.77999973  49.50000000
C    20.58000183  12.13999939  49.78000259
C    21.64999962  11.85999966  48.88000107
C    22.96999931  12.17000008  49.10999680
C    23.28000069  12.90999985  50.27999878
C    22.27000046  13.17000008  51.18000031
C    20.93000031  12.71999931  51.04000092
C    16.79000092  11.85999966  50.20999908
C    16.03999901  12.34000015  51.31000137
C    14.67000008  12.57999992  51.33999634
C    24.70999908  13.35000038  50.51000214
H    25.13987160  12.74101448  51.30526733
H    20.17000008  13.59000015  52.81999969
H    19.00000000  11.28999901  48.55999756
H    21.37000084  11.44999981  47.90999985
H    23.77000046  11.94000053  48.40999985
H    22.47999954  13.66000080  52.12999725
H    14.11999893  12.97999954  52.18999863
H    25.31999969  13.32999992  49.59000015
H    24.70999908  14.39000034  50.86000061
S    13.67000008  10.97000027  47.84000015
C    10.88000107  11.28000069  48.27999878
C    12.18000031  11.43000031  48.68999863
C    12.55000019  11.98999977  49.94999695
C    11.56999969  12.38000011  50.84999847
C    10.21999931  12.13000107  50.51000214
C     9.22000027  12.15999985  51.52999878
C     7.92000008  11.77000046  51.33999634
C     7.59000015  11.13000011  50.11000061
C     8.52000046  11.11999989  49.09000015
C     9.88000011  11.51000023  49.26000214
C    13.96999931  12.15999985  50.20000076
C    14.72000027  11.56999969  49.15000153
C    16.09000015  11.36000061  49.09999847
C     6.12999964  10.77000046  49.95999908
H     5.55000973  11.38579273  49.27260208
H    10.57999992  10.75000000  47.37999725
H    11.89000034  12.79000092  51.79999924
H     9.55000019  12.30000019  52.56000137
H     7.16000032  12.01000023  52.06999969
H     8.11999989  10.90999985  48.09999847
H    16.53000069  11.00000000  48.16999817
H     5.59000015  10.65000057  50.90000153
H     6.09000015   9.77000046  49.50000000
