96

S    16.69999886  12.81999969  58.77999878
C    19.37000084  12.76999950  58.20999908
C    18.11000061  12.42000008  57.77999878
C    17.72999954  11.82999992  56.52999878
C    18.78000069  11.36999989  55.76000214
C    20.07999802  11.82000065  56.10000229
C    21.07999992  11.65999985  55.10000229
C    22.34999847  12.15999985  55.20999908
C    22.72000122  12.81000042  56.42000198
C    21.77999878  12.96000004  57.41000366
C    20.42000008  12.56999969  57.27000427
C    16.28999901  11.94000053  56.31999969
C    15.59999943  12.46999931  57.43999863
C    14.21000004  12.58999920  57.43000031
C    24.15999985  13.26000023  56.56000137
H    24.56433868  12.82728672  57.47508240
H    19.56999969  13.25000000  59.15999985
H    18.61999893  10.95999908  54.77000427
H    20.78000069  11.19999981  54.15999985
H    23.15999985  12.05000019  54.50000000
H    22.03000069  13.55000019  58.29000092
H    13.73000050  13.01000023  58.30999756
H    24.82000160  12.97000027  55.72999954
H    24.17000008  14.34999943  56.60999680
S    13.10999966  10.81999969  54.02000046
C    10.42000008  11.05000019  54.45999908
C    11.68000031  11.28000069  54.97000122
C    12.03999996  11.87999916  56.23000336
C    11.00000000  12.23000050  57.06999969
C     9.68000031  11.84999943  56.75000000
C     8.57999992  12.10999966  57.62000275
C     7.30000019  11.77999973  57.25000000
C     7.04999971  11.05000019  56.05999756
C     8.07999992  10.93999958  55.15999603
C     9.43000031  11.28999901  55.44000244
C    13.48000050  12.03999996  56.37000275
C    14.18000031  11.44000053  55.30000305
C    15.57000065  11.36999989  55.27000046
C     5.65999985  10.57000065  55.70000076
H     5.28365421  11.10256481  54.82659531
H    10.17000008  10.73999977  53.44999695
H    11.05000019  12.76999950  58.01000214
H     8.96000004  12.53000069  58.54000092
H     6.44999981  11.89000034  57.91999817
H     7.92000008  10.62999916  54.13000107
H    16.11999893  10.77000046  54.54000092
H     5.03000021  10.67999935  56.59000015
H     5.73999977   9.50000000  55.48999786
S    17.43000031  12.88000011  52.91999817
C    20.13000107  13.22999954  52.22999954
C    18.88000107  12.76000023  51.90999985
C    18.50000000  12.25000000  50.61999893
C    19.45999908  12.15000057  49.62999725
C    20.75000000  12.67000008  49.86999893
C    21.77999878  12.48000050  48.90999603
C    23.09000015  12.74000072  49.27000046
C    23.38999939  13.35999966  50.51000214
C    22.40999985  13.60000038  51.45000076
C    21.07000160  13.20000076  51.17000198
C    17.06999969  12.06999969  50.44000244
C    16.32999992  12.48000050  51.58000183
C    14.94999981  12.46000099  51.66999817
C    24.82000160  13.73000050  50.80999756
H    25.24715996  13.05366516  51.55040741
H    20.45000076  13.50999928  53.22999954
H    19.22000122  11.77999973  48.62999725
H    21.52000046  11.98999977  47.97999954
H    23.81999969  12.53000069  48.48999786
H    22.63999939  13.89999962  52.47000122
H    14.40000057  12.82999992  52.52999878
H    25.31999969  13.78999901  49.82999802
H    24.82000160  14.78999996  51.07999802
S    13.94000053  11.56000042  47.95000076
C    11.18999958  11.64000034  48.40999985
C    12.46999931  11.76000023  48.90999603
C    12.82999992  12.13999939  50.25000000
C    11.80999947  12.42000008  51.13999939
C    10.47999954  12.31999969  50.66999817
C     9.43000031  12.50000000  51.62000275
C     8.10999966  12.44999981  51.25999832
C     7.82000017  11.95000076  49.97000122
C     8.78000069  11.71000004  49.01000214
C    10.14999962  11.95000076  49.31999969
C    14.26000023  12.11999989  50.50000000
C    15.01000023  11.73999977  49.34999847
C    16.39999962  11.73999977  49.26000214
C     6.40999985  11.44000053  49.75999832
H     5.91856670  12.01690006  48.97655869
H    11.06999969  11.28999901  47.37999725
H    11.90000057  12.53999901  52.22000122
H     9.68999958  12.68000031  52.65999603
H     7.30999994  12.20000076  51.95999908
H     8.57999992  11.16000080  48.09000015
H    16.82999992  11.39999962  48.31999969
H     5.88000011  11.68000031  50.68999863
H     6.28000021  10.34999943  49.68999863
