96

S    16.69999886  12.34000015  59.09000015
C    19.37000084  12.76000023  58.30999756
C    18.12000084  12.27000046  58.02999878
C    17.77000046  11.71000004  56.75000000
C    18.77000046  11.65999985  55.80999756
C    20.10999870  12.05000019  56.06999969
C    21.22999954  11.90999985  55.20000076
C    22.46999931  12.38999939  55.54000092
C    22.72000122  12.94999981  56.81999969
C    21.70000076  13.07000065  57.74000168
C    20.39999962  12.63000011  57.35000229
C    16.31999969  11.64000034  56.56999969
C    15.59999943  12.05000019  57.71999741
C    14.22000027  12.01000023  57.84000015
C    24.11000061  13.25000000  57.31999969
H    24.62184906  12.43957233  57.83895874
H    19.51000023  13.22999954  59.29000092
H    18.59000015  11.33999920  54.78000259
H    21.09000015  11.35000038  54.27999878
H    23.31999969  12.22000027  54.87999725
H    21.84000015  13.50000000  58.72000122
H    13.68999958  12.10999966  58.79000092
H    24.69000053  13.40000057  56.38999939
H    24.23000145  14.15999985  57.91999817
S    13.21000004  10.95000076  54.08000183
C    10.48999977  10.90999985  54.71000290
C    11.77999973  11.18999958  55.10000229
C    12.13999939  11.68000031  56.39999771
C    11.11999989  11.82000065  57.31999969
C     9.77999973  11.46999931  57.00000000
C     8.80000019  11.38000011  58.02000046
C     7.50999975  11.00000000  57.72999573
C     7.13999987  10.67000008  56.39999771
C     8.09000015  10.71000004  55.40999985
C     9.46000004  11.03000069  55.66999817
C    13.56999969  11.69999981  56.63999939
C    14.26000023  11.36999989  55.44000244
C    15.65000057  11.23000050  55.40999985
C     5.69000006  10.39000034  56.05999756
H     5.28271055  11.02594376  55.27400208
H    10.29999924  10.34000015  53.81000137
H    11.38000011  11.92000008  58.36999893
H     8.96000004  11.84999943  58.99000168
H     6.80999994  11.06999969  58.54999924
H     7.88000011  10.29999924  54.41999817
H    16.05999947  10.67000008  54.58000183
H     5.10999966  10.59000015  56.97000122
H     5.63000011   9.30999947  55.84999847
S    17.13999939  12.69999981  52.78999710
C    19.79999924  12.74000072  52.11999893
C    18.51000023  12.50000000  51.69000244
C    18.15000153  12.03999996  50.38000107
C    19.11000061  11.90999985  49.38000107
C    20.43999863  12.18000031  49.75999832
C    21.50000000  12.09000015  48.81000137
C    22.78000069  12.44999981  49.15999985
C    23.12999916  12.93000031  50.45000076
C    22.09000015  13.07000065  51.33999634
C    20.78000069  12.56000042  51.11000061
C    16.70999908  11.90000057  50.30000305
C    16.02000046  12.32999992  51.45999908
C    14.63999939  12.50000000  51.51000214
C    24.57999992  13.19000053  50.79999924
H    24.95591354  12.46654034  51.52346039
H    20.00999832  13.31999969  53.01000214
H    18.71999931  11.51999950  48.44999695
H    21.24000168  11.73999977  47.81999969
H    23.59000015  12.00000000  48.60000229
H    22.27000046  13.50000000  52.31999969
H    14.15999985  12.77999973  52.43999863
H    25.22999954  13.32999992  49.93000031
H    24.69000053  14.21000004  51.18999863
S    13.40999985  11.17000008  48.00000000
C    10.77999973  11.06999969  48.86000061
C    12.05999947  11.51999950  49.09999847
C    12.46999931  12.10000038  50.34000015
C    11.46000004  12.28999996  51.26999664
C    10.11999989  11.92000008  51.04000092
C     9.06000042  12.07999992  51.97000122
C     7.73999977  11.85999966  51.65000153
C     7.39000034  11.42000008  50.34999847
C     8.36999989  11.11999989  49.43999863
C     9.72999954  11.42000008  49.75000000
C    13.92000008  12.22000027  50.34000015
C    14.59000015  11.64999962  49.22999954
C    15.95999908  11.40999985  49.22000122
C     5.97000027  11.00000000  50.02999878
H     5.47870398  11.60521889  49.26813507
H    10.65000057  10.57999992  47.90000153
H    11.73999977  12.71999931  52.22999954
H     9.31999969  12.41000080  52.97999954
H     6.91999960  11.94000053  52.35000229
H     8.13000011  10.69000053  48.47000122
H    16.46000099  10.84000015  48.43999863
H     5.32000017  11.03000069  50.90999985
H     5.98999977   9.96000004  49.68999863
