96

S    16.39999962  12.53000069  59.05000305
C    19.11000061  12.38000011  58.50999832
C    17.82999992  12.11999989  58.09000015
C    17.54999924  11.65999985  56.76000214
C    18.57999992  11.31999969  55.90000153
C    19.90999985  11.61999893  56.26999664
C    20.95000076  11.57999992  55.30000305
C    22.19000053  12.10999966  55.58000183
C    22.44999886  12.55000019  56.90000153
C    21.47000122  12.64000034  57.85999680
C    20.15000153  12.20999908  57.56000137
C    16.10999870  11.57999992  56.52999878
C    15.40999985  11.96000004  57.70000076
C    14.01999950  11.94000053  57.74000168
C    23.87000084  12.98999977  57.19999695
H    24.37298775  12.38074780  57.95093918
H    19.22000122  12.65999985  59.54999924
H    18.20999908  11.28000069  54.87999725
H    20.75000000  11.33999920  54.26000214
H    23.01000214  12.10999966  54.86999893
H    21.61999893  13.03999996  58.86000061
H    13.50999928  12.23999977  58.64999771
H    24.36000061  12.98999977  56.22000122
H    23.92999840  14.04000092  57.51999664
S    12.88000011  10.77999973  54.09000015
C    10.18000031  10.86999989  54.75999832
C    11.46999931  11.21999931  55.07999802
C    11.84999943  11.69000053  56.38000107
C    10.88000107  11.90999985  57.34000397
C     9.52999973  11.64999962  57.02000046
C     8.38000011  11.90999985  57.83000183
C     7.09999990  11.63000011  57.41000366
C     6.78999996  11.02000046  56.16000366
C     7.86999989  10.65999985  55.38999939
C     9.18000031  11.06999969  55.75000000
C    13.28999996  11.71000004  56.56000137
C    13.96999931  11.26999950  55.40000153
C    15.36000061  11.23999977  55.40000153
C     5.36000013  10.67999935  55.79999924
H     4.98371029  11.10598850  54.86992264
H    10.06000042  10.14999962  53.95999908
H    11.21000099  12.35999966  58.27000046
H     8.60000038  12.43000031  58.75999832
H     6.24000025  11.77999973  58.04999924
H     7.69999981  10.10000038  54.47000122
H    15.88999939  11.00000000  54.48999786
H     4.76999998  11.07999992  56.63000107
H     5.28999996   9.59000015  55.84000015
S    13.17999935   8.69000053  51.11000061
C    10.47999954   8.42000008  51.86999893
C    11.80999947   8.14999962  52.09999847
C    12.28999996   7.55000019  53.30999756
C    11.39999962   7.25000000  54.31999969
C    10.01999950   7.48000050  54.10999680
C     9.06999969   7.13999987  55.11000061
C     7.73000002   7.09000015  54.80999756
C     7.23999977   7.57999992  53.56999969
C     8.14000034   8.06999969  52.65999603
C     9.55000019   8.03999996  52.87000275
C    13.73999977   7.68000031  53.47000122
C    14.37999916   8.23000050  52.32999802
C    15.76000023   8.40999985  52.29999924
C     5.75999975   7.36000013  53.36000061
H     5.40252924   7.80326319  52.43057632
H    10.14999962   8.89999962  50.94999695
H    11.84000015   6.96000004  55.27999878
H     9.46000004   6.84000015  56.07999802
H     7.02000046   6.75000000  55.56000137
H     7.83999968   8.34000015  51.65000153
H    16.17000008   9.09000015  51.56000137
H     5.64000034   6.26999950  53.30999756
H     5.14999962   7.67000008  54.22000122
S    16.92000008   7.09999990  55.94999695
C    19.61000061   7.63999987  55.37000275
C    18.30000114   7.62000036  54.95999908
C    17.87999916   8.13000011  53.68999863
C    18.81999969   8.75000000  52.88999939
C    20.17999840   8.76999950  53.27999878
C    21.24000168   9.23999977  52.44999695
C    22.56000137   9.09000015  52.80000305
C    22.93999863   8.43000031  53.99000168
C    21.97000122   7.90000010  54.81999969
C    20.61000061   8.18000031  54.52000046
C    16.45000076   8.03999996  53.46000290
C    15.81999969   7.55000019  54.62999725
C    14.44000053   7.31999969  54.62999725
C    24.38999939   8.03999996  54.10999680
H    24.94484520   8.65175152  54.82133865
H    19.85999870   7.09000015  56.26999664
H    18.45000076   9.10000038  51.93999863
H    20.95999908   9.51000023  51.43000031
H    23.31999969   9.15000057  52.02999878
H    22.22999954   7.22000027  55.63999939
H    14.01000023   6.72999954  55.43000031
H    24.86000061   8.01999950  53.11999893
H    24.46000099   7.03999996  54.56999969
