96

S    16.84000015  12.68000031  58.75000000
C    19.51000023  12.74000072  58.09999847
C    18.25000000  12.31999969  57.75000000
C    17.95999908  11.59000015  56.55000305
C    18.97999954  11.51999950  55.63000107
C    20.29000092  11.97999954  55.90000153
C    21.40000153  11.69999981  55.05000305
C    22.70999908  11.87000084  55.44000244
C    23.00000000  12.56000042  56.65000153
C    21.94000053  12.89999962  57.45999908
C    20.58000183  12.55000019  57.18999863
C    16.52000046  11.42000008  56.40999603
C    15.80000019  11.98999977  57.49000168
C    14.44000053  12.28999996  57.39999771
C    24.40000153  13.01000023  56.95999908
H    24.89366150  12.30170441  57.62537003
H    19.79999924  13.10999966  59.08000183
H    18.85000038  10.97000027  54.69999695
H    21.18000031  11.33999920  54.05000305
H    23.46999931  11.42000008  54.79999924
H    22.11000061  13.38000107  58.41999817
H    13.93000031  12.77999973  58.22999954
H    24.94999886  13.05999947  56.00999832
H    24.36000061  14.04000092  57.34000397
S    13.35999966  10.80999947  53.90999603
C    10.65000057  10.92000008  54.61000061
C    11.94000053  11.35000038  54.81999969
C    12.30000019  12.05000019  56.02000427
C    11.36999989  12.34000015  57.00000000
C    10.03000069  11.94000053  56.77999878
C     9.09000015  11.97999954  57.84999847
C     7.77999973  11.63000011  57.63000107
C     7.39000034  11.13000011  56.36000061
C     8.27999973  11.00999928  55.31999969
C     9.64999962  11.35000038  55.52000046
C    13.73999977  12.05000019  56.20999908
C    14.46000004  11.46999931  55.13999939
C    15.81999969  11.18000031  55.21999741
C     6.05999994  10.40999985  56.24000168
H     5.49267673  10.94895744  55.48120880
H    10.44999981  10.32999992  53.72000122
H    11.77999973  12.61999989  57.97000122
H     9.39999962  12.32999992  58.82999802
H     7.20000029  11.42000008  58.53000259
H     7.96999979  10.47999954  54.43000031
H    16.34000015  10.92000008  54.31000137
H     5.51999998  10.46000004  57.18999863
H     6.24000025   9.35999966  55.98999786
S    17.56000137  12.72999954  52.75000000
C    20.22000122  12.94999981  51.97000122
C    18.96000099  12.50000000  51.68000031
C    18.60000038  11.96000004  50.40000153
C    19.55000114  12.00000000  49.38999939
C    20.88999939  12.32999992  49.71000290
C    21.91999817  12.28000069  48.73000336
C    23.22000122  12.60000038  49.03999710
C    23.61000061  13.02999973  50.34000015
C    22.63000107  13.07999992  51.30000305
C    21.25999832  12.79999924  51.02000427
C    17.15999985  11.82999992  50.28999710
C    16.45000076  12.30999947  51.42000198
C    15.10000038  12.61999989  51.39999771
C    24.97999954  13.53999996  50.72999954
H    25.42892838  12.86304379  51.45683670
H    20.35000038  13.57999992  52.84999847
H    19.34999847  11.72000027  48.36000061
H    21.63000107  12.02000046  47.71999741
H    24.01000023  12.53000069  48.29000092
H    22.85000038  13.38999939  52.30999756
H    14.68999958  12.94000053  52.36000061
H    25.62000084  13.63999939  49.85000229
H    24.89999962  14.52999973  51.20999908
S    13.88000011  11.28000069  47.90999985
C    11.14999962  11.19999981  48.68000031
C    12.46000099  11.51999950  48.95000076
C    12.86999893  12.15999985  50.17000198
C    11.87999916  12.38000011  51.11000061
C    10.51000023  12.11999989  50.90000153
C     9.50000000  12.20999908  51.90000153
C     8.19999981  11.85999966  51.60999680
C     7.81000042  11.46000004  50.31000137
C     8.78999996  11.23999977  49.36999893
C    10.15999985  11.52999973  49.64000320
C    14.30999947  12.30000019  50.28999710
C    15.01999950  11.84999943  49.13999939
C    16.39000130  11.61999893  49.13999939
C     6.39999962  10.95000076  50.06999969
H     5.90126419  11.54848289  49.30764771
H    10.88999939  10.52999973  47.85999680
H    12.17000008  12.55000019  52.15000153
H     9.81000042  12.60000038  52.85999680
H     7.42000008  11.95000076  52.36999893
H     8.57999992  10.70000076  48.44999695
H    16.86000061  11.40999985  48.18000031
H     5.86000013  10.90000057  51.02000427
H     6.48999977   9.92999935  49.68999863
