96

S    16.84000015  12.38999939  58.73000336
C    19.51000023  12.57999992  58.06000137
C    18.23999977  12.27000046  57.63999939
C    17.92000008  11.64999962  56.38999939
C    18.93000031  11.43000031  55.45999908
C    20.23999977  11.82000065  55.80999756
C    21.35999870  11.61999893  54.93999863
C    22.65000153  11.92999935  55.28999710
C    22.90999985  12.46999931  56.58000183
C    21.87999916  12.65999985  57.47000122
C    20.53999901  12.32999992  57.11999893
C    16.47999954  11.46999931  56.25999832
C    15.76000023  11.96000004  57.37999725
C    14.37999916  12.09000015  57.42000198
C    24.28999901  12.94999981  56.95999908
H    24.85174179  12.23182201  57.55729675
H    19.76000023  13.03999996  59.01000214
H    18.67000008  11.17000008  54.43999863
H    21.17000198  11.10999966  54.00000000
H    23.50000000  11.84999943  54.62999725
H    21.90999985  13.22999954  58.40000153
H    13.76999950  12.22000027  58.30999756
H    24.82000160  13.36999989  56.09000397
H    24.07999992  13.73000050  57.70000076
S    13.17000008  10.64000034  53.93000031
C    10.53999996  10.72999954  54.59999847
C    11.80999947  11.10999966  54.95999908
C    12.15000057  11.75000000  56.19999695
C    11.10999966  12.10999966  57.02999878
C     9.80000019  11.63000011  56.77000046
C     8.80000019  11.59000015  57.77999878
C     7.53999996  11.13000011  57.50000000
C     7.25000000  10.44999981  56.27999878
C     8.23999977  10.29999924  55.34000015
C     9.51000023  10.88000107  55.58000183
C    13.60000038  11.76000023  56.30000305
C    14.27999973  11.23999977  55.18000031
C    15.67000008  11.13000011  55.18000031
C     5.84999990   9.94999981  56.00000000
H     5.38232517  10.59482384  55.25597000
H    10.31000042  10.11000061  53.74000168
H    11.46999931  12.60000038  57.93000031
H     9.02000046  12.20999908  58.64999771
H     6.75000000  11.25000000  58.22999954
H     8.01999950   9.85000038  54.36999893
H    16.17000008  10.75000000  54.29000092
H     5.28999996  10.19000053  56.90999985
H     5.80999947   8.86999989  55.80999756
S    13.02999973   8.78000069  50.89000320
C    10.34000015   8.30000019  51.56999969
C    11.68000031   8.14000034  51.84999847
C    12.06999969   7.39000034  53.00000000
C    11.11999989   6.81999969  53.82999802
C     9.75000000   7.13000011  53.62999725
C     8.75000000   6.39999962  54.33000183
C     7.42000008   6.67999983  54.09000015
C     7.03999996   7.62000036  53.09999847
C     7.96999979   8.19999981  52.27000427
C     9.35000038   7.94000053  52.50999832
C    13.50999928   7.46999979  53.13999939
C    14.18000031   8.13000011  52.08000183
C    15.51000023   8.52000046  52.09999847
C     5.56999969   7.73999977  52.75000000
H     5.25687695   7.25608158  51.82486343
H    10.14999962   8.85999966  50.65999985
H    11.51000023   6.05999994  54.50000000
H     9.11999989   5.69000006  55.06000137
H     6.69000053   6.19999981  54.75000000
H     7.71000004   8.75000000  51.37000275
H    16.01000023   8.93000031  51.22000122
H     4.96000004   7.30000019  53.54999924
H     5.33999968   8.80999947  52.80000305
S    16.75000000   6.94999981  55.54999924
C    19.40000153   7.65999985  55.11000061
C    18.07999992   7.77999973  54.73999786
C    17.65999985   8.28999996  53.47000122
C    18.68999863   8.73999977  52.67000198
C    20.06999969   8.71999931  53.01000214
C    21.09000015   9.26999950  52.18999863
C    22.40999985   9.10000038  52.54000092
C    22.80999947   8.45000076  53.74000168
C    21.81999969   7.96000004  54.55999756
C    20.43999863   8.15999985  54.29000092
C    16.22999954   8.10000038  53.22999954
C    15.59000015   7.40999985  54.27999878
C    14.26000023   7.02000046  54.23999786
C    24.25000000   8.06999969  54.00000000
H    24.71847725   8.49588871  54.88726807
H    19.63000107   7.11999989  56.03000259
H    18.44000053   9.15000057  51.70000076
H    20.85000038   9.76000023  51.25000000
H    23.22000122   9.31999969  51.86000061
H    22.07999992   7.35000038  55.41999817
H    13.80000019   6.50000000  55.06999969
H    24.79999924   8.36999989  53.09999847
H    24.30000114   6.98000002  54.01000214
