96

S    16.45000076  12.42000008  58.82999802
C    19.20999908  12.53000069  58.22000122
C    17.92000008  12.20999908  57.85999680
C    17.57999992  11.82000065  56.52000046
C    18.63000107  11.69000053  55.61999893
C    19.93999863  12.10999966  55.96000290
C    20.94000053  12.30000019  54.95999908
C    22.21999931  12.71999931  55.24000168
C    22.50999832  13.09999943  56.58000183
C    21.56999969  13.02999973  57.57999802
C    20.29000092  12.48999977  57.29999924
C    16.14999962  11.80999947  56.26999664
C    15.39999962  12.05000019  57.44999695
C    14.01000023  12.05999947  57.52999878
C    23.90999985  13.60000038  56.86999893
H    24.41339302  12.98316574  57.61445236
H    19.38999939  12.96000004  59.20000076
H    18.30000114  11.52999973  54.59999847
H    20.62999916  12.13999939  53.93000031
H    22.96999931  12.94999981  54.48999786
H    21.63999939  13.60999966  58.50000000
H    13.42000008  12.17000008  58.43999863
H    24.38999939  13.59000015  55.87999725
H    23.85000038  14.63999939  57.19999695
S    13.02000046  11.40999985  53.70999908
C    10.34000015  10.93999958  54.33000183
C    11.59000015  11.31000042  54.75000000
C    11.90000057  11.65999985  56.11000061
C    10.85999966  11.72999954  57.02000046
C     9.52999973  11.61000061  56.56999969
C     8.42000008  11.69999981  57.47000122
C     7.14999962  11.30000019  57.11999893
C     6.93000031  10.73999977  55.83000183
C     7.96000004  10.67000008  54.91000366
C     9.26999950  11.10999966  55.25000000
C    13.31999969  11.84999943  56.32999802
C    14.04999924  11.71000004  55.12000275
C    15.43000031  11.59000015  55.08999634
C     5.59000015  10.15999985  55.45000076
H     5.04922009  10.80751228  54.75979614
H    10.19999981  10.26999950  53.48999786
H    10.97000027  11.92000008  58.09000015
H     8.53999996  11.98999977  58.50999832
H     6.46000004  11.16000080  57.94000244
H     7.90999985  10.19999981  53.93000031
H    15.90000057  11.49000072  54.12000275
H     4.94999981   9.92000008  56.30000305
H     5.97000027   9.19000053  55.08999634
S    13.50999928   9.07999992  51.22000122
C    10.88999939   8.27999973  51.93000031
C    12.25000000   8.22000027  52.11999893
C    12.76999950   7.64999962  53.33000183
C    11.90000057   7.05999947  54.22000122
C    10.50000000   7.07000017  54.02999878
C     9.56999969   6.61999989  55.01999664
C     8.22000027   6.67000008  54.75999832
C     7.68000031   7.23999977  53.57999802
C     8.56999969   7.78999996  52.69000244
C     9.98000050   7.76999998  52.88999939
C    14.22000027   7.82000017  53.40999985
C    14.78999996   8.55000019  52.32999802
C    16.13000107   8.89000034  52.18000031
C     6.25999975   6.98000002  53.11999893
H     5.94643545   7.50023174  52.21493912
H    10.44999981   8.71000004  51.04000092
H    12.32999992   6.61999989  55.12000275
H    10.10000038   6.24000025  55.89000320
H     7.63000011   6.15000010  55.51000214
H     8.17000008   8.32999992  51.83000183
H    16.42000008   9.39999962  51.26999664
H     6.21999979   5.91000032  52.88999939
H     5.51000023   7.22000027  53.88000107
S    17.61999893   7.42000008  55.59999847
C    20.31999969   7.90999985  54.81999969
C    18.96000099   7.95000029  54.56999969
C    18.40999985   8.53999996  53.39000320
C    19.27000046   9.22000027  52.55000305
C    20.66999817   9.23999977  52.77999878
C    21.48999977  10.03999901  51.93999863
C    22.84000015  10.10000038  52.18999863
C    23.39999962   9.36999989  53.27999878
C    22.60999870   8.60999966  54.12000275
C    21.19999886   8.59000015  53.95000076
C    16.97999954   8.39999962  53.18000031
C    16.43000031   7.76000023  54.31999969
C    15.08999920   7.39000034  54.40999985
C    24.89999962   9.28999996  53.40999985
H    25.30627823   9.40404320  54.41500473
H    20.65999985   7.36000013  55.70000076
H    18.79999924   9.68999958  51.69000244
H    21.01000023  10.53999996  51.11000061
H    23.45999908  10.70000076  51.52999878
H    23.15000153   8.09000015  54.91000366
H    14.65000057   7.03999996  55.34000015
H    25.32999992  10.14000034  52.88000107
H    25.13999939   8.30999947  52.97000122
