96

S    17.13999939  11.84000015  58.95000076
C    19.79999924  12.34000015  58.13000107
C    18.50000000  12.02000046  57.81999969
C    18.11000061  11.57999992  56.52000046
C    19.04999924  11.42000008  55.52000046
C    20.40999985  11.59000015  55.86000061
C    21.38000107  11.46000004  54.82999802
C    22.70999908  11.68000031  55.08999634
C    23.12000084  12.05999947  56.39999771
C    22.20000076  12.15000057  57.41000366
C    20.79999924  11.96000004  57.19999695
C    16.64999962  11.52999973  56.40999603
C    15.95999908  11.56999969  57.64999771
C    14.57999992  11.56999969  57.77000046
C    24.57999992  12.39999962  56.58000183
H    25.04148865  11.95271111  57.46037674
H    20.12000084  12.53000069  59.15000153
H    18.76000023  11.30000019  54.47999954
H    21.01000023  11.23000050  53.82999802
H    23.39999962  11.64000034  54.26000214
H    22.42000198  12.61999989  58.36999893
H    14.14999962  11.77999973  58.74000168
H    25.15999985  12.05999947  55.70999908
H    24.63000107  13.48999977  56.65000153
S    13.30000019  10.64000034  54.20000076
C    10.64000034  10.48999977  54.94999695
C    11.94000053  10.71000004  55.34000015
C    12.30000019  11.19999981  56.63999939
C    11.32999992  11.26999950  57.62000275
C    10.00000000  10.88999939  57.29999924
C     8.93000031  10.92000008  58.23999786
C     7.60999966  10.78999996  57.90000153
C     7.25000000  10.42000008  56.58000183
C     8.27000046  10.31000042  55.65999985
C     9.63000011  10.59999943  55.93999863
C    13.75000000  11.33999920  56.66999817
C    14.45000076  11.19999981  55.44000244
C    15.82999992  11.28000069  55.31000137
C     5.82999992  10.06000042  56.19999695
H     5.39062214  10.78284740  55.51258087
H    10.40999985  10.00000000  54.01000214
H    11.63000011  11.64000034  58.60000229
H     8.97999954  11.40999985  59.20999908
H     6.81999969  10.90999985  58.63999939
H     8.03999996  10.19999981  54.59999847
H    16.32999992  11.00999928  54.38000107
H     5.09999990   9.96999931  57.01000214
H     5.66999960   9.03999996  55.83000183
S    17.02999878  12.58999920  52.57999802
C    19.69000053  13.02999973  51.88999939
C    18.43000031  12.64999962  51.49000168
C    18.06999969  12.30999947  50.14999771
C    19.05999947  12.36999989  49.19000244
C    20.39999962  12.65999985  49.52999878
C    21.48999977  12.65999985  48.61999893
C    22.78000069  12.90999985  49.02000046
C    23.05999947  13.26000023  50.37000275
C    22.04999924  13.23999977  51.30000305
C    20.69999886  12.97000027  50.90000153
C    16.63999939  12.23999977  49.89999771
C    15.98999977  12.42000008  51.14999771
C    14.61999989  12.31999969  51.31999969
C    24.44999886  13.73000050  50.75000000
H    24.96860504  12.99116516  51.36095810
H    19.88000107  13.30000019  52.93000031
H    18.88000107  12.10999966  48.15000153
H    21.31999969  12.51000023  47.56000137
H    23.54999924  13.02000046  48.26000214
H    22.21999931  13.38000107  52.36000061
H    14.13000011  12.23000050  52.29000092
H    25.06000137  13.85000038  49.85000229
H    24.40000153  14.70999908  51.23000336
S    13.31999969  11.98999977  47.58999634
C    10.70000076  11.38000011  48.55999756
C    12.01000023  11.73999977  48.75999832
C    12.48000050  11.98999977  50.08999634
C    11.54999924  11.77999973  51.10000229
C    10.18000031  11.44999981  50.93000031
C     9.19000053  11.38000011  51.95000076
C     7.86999989  11.18000031  51.62000275
C     7.48000050  10.90000057  50.27999878
C     8.39999962  10.84000015  49.26000214
C     9.75000000  11.14999962  49.59000015
C    13.89999962  12.28000069  50.12000275
C    14.55000019  12.15999985  48.86000061
C    15.93000031  12.10999966  48.69999695
C     6.07999992  10.52000046  49.86999893
H     5.63287354  11.06648731  49.03961945
H    10.46000004  11.25000000  47.50999832
H    11.94000053  11.90000057  52.09999847
H     9.42000008  11.82000065  52.91999817
H     7.16000032  11.33999920  52.42000198
H     8.11999989  10.57999992  48.23999786
H    16.46000099  12.01000023  47.76000214
H     5.42000008  10.64000034  50.73999786
H     6.11000013   9.46000004  49.61999893
