96

S    16.79999924  11.87000084  58.56999969
C    19.45000076  12.35000038  57.94000244
C    18.22999954  11.89000034  57.50999832
C    17.93000031  11.42000008  56.18999863
C    18.97999954  11.32999992  55.30000305
C    20.25000000  11.79999924  55.70000076
C    21.37000084  11.79999924  54.81999969
C    22.63000107  12.23999977  55.15999603
C    22.86999893  12.72999954  56.46999741
C    21.80999947  12.81000042  57.35000229
C    20.52000046  12.30999947  57.02000046
C    16.48999977  11.35000038  55.97000122
C    15.76000023  11.54999924  57.16999817
C    14.37000084  11.64000034  57.19999695
C    24.28999901  13.05999947  56.86000061
H    24.69537735  12.37725830  57.60675049
H    19.57999992  12.64999962  58.97999573
H    18.68000031  10.95000076  54.31999969
H    21.27000046  11.18999958  53.93000031
H    23.45999908  12.05000019  54.48999786
H    21.97999954  13.20000076  58.34999847
H    13.85000038  11.87000084  58.11999893
H    24.89999962  13.12000084  55.94999695
H    24.14999962  14.07999992  57.25000000
S    13.21000004  11.03999996  53.43000031
C    10.53999996  10.73999977  54.15000153
C    11.82000065  11.03000069  54.54000092
C    12.20000076  11.40999985  55.86999893
C    11.16000080  11.65999985  56.73999786
C     9.81000042  11.44999981  56.37000275
C     8.73000050  11.69999981  57.25999832
C     7.40999985  11.42000008  56.97999954
C     7.11000013  10.86999989  55.70000076
C     8.10999966  10.67000008  54.78000259
C     9.47000027  10.97000027  55.06000137
C    13.64999962  11.51999950  56.00999832
C    14.32999992  11.28000069  54.79000092
C    15.72000027  11.21000099  54.79999924
C     5.75999975  10.27999973  55.38999939
H     5.24723387  10.95656681  54.70631027
H    10.32999992  10.31999969  53.16999817
H    11.36999989  12.03999996  57.72999573
H     9.02999973  11.97999954  58.27000046
H     6.71999979  11.52999973  57.80000305
H     7.94000053  10.21999931  53.80000305
H    16.26000023  11.02000046  53.88000107
H     5.17000008  10.11000061  56.31000137
H     5.82000017   9.32999992  54.85000229
S    17.57999992  12.93000031  52.36000061
C    20.29999924  12.89000034  51.56000137
C    18.97999954  12.53999901  51.36000061
C    18.54999924  12.05000019  50.07999802
C    19.51000023  11.82000065  49.10999680
C    20.86000061  12.18000031  49.29999924
C    21.77000046  11.96000004  48.22000122
C    23.09000015  12.23000050  48.48999786
C    23.51000023  12.75000000  49.73999786
C    22.63999939  13.14000034  50.72999954
C    21.28999901  12.74000072  50.54999924
C    17.12000084  11.76000023  49.99000168
C    16.47999954  12.43000031  51.05999756
C    15.10000038  12.61000061  51.03000259
C    24.96000099  13.00000000  50.10000229
H    25.26653671  12.40831280  50.96258163
H    20.45999908  13.47000027  52.45999908
H    19.13999939  11.46999931  48.15000153
H    21.47999954  11.57999992  47.23999786
H    23.84000015  11.87000084  47.80000305
H    22.86000061  13.71000099  51.63000107
H    14.60999966  12.98999977  51.91999817
H    25.59000015  12.92000008  49.20000076
H    24.99000168  14.07999992  50.27000046
S    14.02999973  11.09000015  47.49000168
C    11.31999969  11.03000069  48.20000076
C    12.61000061  11.36999989  48.52000427
C    12.97000027  12.01000023  49.75000000
C    11.94000053  12.35999966  50.61000061
C    10.60999966  11.92000008  50.44000244
C     9.53999996  12.18999958  51.32999802
C     8.27000046  11.73999977  51.07999802
C     7.96999979  11.05000019  49.87999725
C     8.97000027  10.93999958  48.93000031
C    10.32999992  11.28000069  49.18000031
C    14.40999985  12.13999939  49.91000366
C    15.08999920  11.46000004  48.86000061
C    16.46999931  11.23000050  48.87000275
C     6.58999968  10.48999977  49.61000061
H     6.04984093  11.11544704  48.89926529
H    11.03000069  10.50000000  47.29000092
H    12.20999908  12.86999893  51.53999710
H     9.89999962  12.65999985  52.25000000
H     7.51999950  11.95000076  51.84000015
H     8.69000053  10.48999977  47.97999954
H    17.06999969  10.97000027  48.01000214
H     6.02999973  10.38000011  50.54999924
H     6.70000029   9.47000027  49.22999954
