96

S    16.81999969  12.23999977  58.88000107
C    19.44000053  12.53999901  58.02000046
C    18.15999985  12.10999966  57.72999573
C    17.78000069  11.75000000  56.39999771
C    18.71999931  11.61999893  55.38999939
C    20.06999969  11.84999943  55.73999786
C    21.07999992  11.84000015  54.72999954
C    22.39999962  12.06999969  55.04000092
C    22.76000023  12.51999950  56.33999634
C    21.80000114  12.65999985  57.30999756
C    20.45000076  12.30000019  57.04999924
C    16.32999992  11.61999893  56.37000275
C    15.65999985  11.95000076  57.56999969
C    14.27000046  11.94000053  57.60000229
C    24.14999962  12.98999977  56.68000031
H    24.55356789  12.23950195  57.35969543
H    19.65999985  13.05999947  58.94000244
H    18.42000008  11.35000038  54.38000107
H    20.79000092  11.51999950  53.73000336
H    23.09999847  11.98999977  54.20999908
H    22.13999939  13.01000023  58.27999878
H    13.78999901  12.28999996  58.52000427
H    24.73999977  13.00000000  55.75000000
H    24.09000015  13.96999931  57.15999985
S    13.12000084  10.72000027  54.02999878
C    10.39000034  10.65999985  54.65999985
C    11.67000008  11.00999928  55.01999664
C    12.02000046  11.49000072  56.31999969
C    10.95000076  11.61999893  57.19999695
C     9.59999943  11.38000011  56.84999847
C     8.47999954  11.59999943  57.70000076
C     7.21000004  11.17000008  57.37999725
C     7.09999990  10.38000011  56.20999908
C     8.09000015  10.11000061  55.30000305
C     9.32999992  10.75000000  55.59000015
C    13.45999908  11.56999969  56.52000046
C    14.19000053  11.16000080  55.38000107
C    15.57999992  11.16000080  55.27999878
C     5.69999981   9.92999935  55.84000015
H     5.14590931  10.52671337  55.11542130
H    10.19999981   9.96999931  53.85000229
H    11.19999981  11.97000027  58.20000076
H     8.71000004  12.18999958  58.59000397
H     6.34999990  11.54999924  57.91999817
H     8.00000000   9.52999973  54.38000107
H    15.98000050  10.95000076  54.29000092
H     5.18000031   9.88000011  56.81000137
H     5.73999977   8.89999962  55.48999786
S    17.35999870  12.69000053  52.62000275
C    19.98999977  12.97999954  51.84999847
C    18.72999954  12.55000019  51.51000214
C    18.45000076  11.90999985  50.26000214
C    19.47999954  11.69000053  49.36000061
C    20.79000092  12.05999947  49.72000122
C    21.86000061  11.89000034  48.79000092
C    23.15000153  12.28000069  49.06000137
C    23.42000008  12.81000042  50.34999847
C    22.42000198  13.02999973  51.26999664
C    21.05999947  12.74000072  50.96000290
C    17.01000023  11.69999981  50.20000076
C    16.27000046  12.05999947  51.36000061
C    14.88999939  12.11999989  51.42000198
C    24.82000160  13.26000023  50.70000076
H    25.28840065  12.64256477  51.46646881
H    20.19000053  13.50999928  52.77999878
H    19.26000023  11.30000019  48.36000061
H    21.52000046  11.43000031  47.87000275
H    23.97999954  12.02000046  48.41999817
H    22.53999901  13.55999947  52.21000290
H    14.40999985  12.50000000  52.31999969
H    25.45000076  13.36999989  49.80999756
H    24.68000031  14.28999996  51.05999756
S    13.76999950  10.81999969  47.81000137
C    11.03000069  10.92000008  48.46000290
C    12.34000015  11.13999939  48.81000137
C    12.71000004  11.65999985  50.10000229
C    11.72000027  11.95000076  51.00999832
C    10.36999893  11.67000008  50.70999908
C     9.32999992  11.75000000  51.68000031
C     8.02999973  11.50000000  51.31999969
C     7.63000011  11.13000011  50.00999832
C     8.63000011  11.03999996  49.06999969
C    10.00000000  11.26000023  49.38000107
C    14.14999962  11.69999981  50.30000305
C    14.85000038  11.19999981  49.16999817
C    16.23999977  11.21999931  49.13999939
C     6.24000025  10.59999943  49.72999954
H     5.75793839  11.28055763  49.02817535
H    10.82999992  10.29999924  47.58999634
H    11.90999985  12.38999939  51.98999786
H     9.59999943  11.97000027  52.70999908
H     7.26000023  11.56999969  52.09000015
H     8.47999954  10.65000057  48.06999969
H    16.72999954  10.81999969  48.26000214
H     5.68000031  10.59000015  50.68000031
H     6.30000019   9.59999943  49.29999924
