96

S    16.39999962  12.20000076  58.87000275
C    19.12999916  12.30999947  58.18999863
C    17.82999992  12.06999969  57.83000183
C    17.54999924  11.69999981  56.46999741
C    18.56999969  11.63000011  55.54000092
C    19.89999962  12.00000000  55.84999847
C    20.90999985  12.09000015  54.85000229
C    22.15999985  12.51999950  55.22999573
C    22.44999886  12.97999954  56.53999710
C    21.47999954  12.81000042  57.50000000
C    20.15000153  12.38000011  57.21000290
C    16.10999870  11.57999992  56.29000092
C    15.36999893  11.84999943  57.47000122
C    13.97999954  11.96000004  57.51999664
C    23.81000137  13.52000046  56.90999985
H    24.30682945  12.79605007  57.55587769
H    19.29999924  12.61000061  59.22000122
H    18.44000053  11.47999954  54.47000122
H    20.79000092  11.80999947  53.81000137
H    22.86000061  12.65999985  54.40999985
H    21.63999939  13.09000015  58.54000092
H    13.50999928  12.18000031  58.47000122
H    24.34000015  13.73999977  55.97999954
H    23.64000130  14.46000004  57.45999908
S    12.94999981  11.02000046  53.83999634
C    10.21999931  10.64000034  54.56999969
C    11.51999950  10.97000027  54.87999725
C    11.82000065  11.54999924  56.16000366
C    10.81999969  11.87999916  57.04999924
C     9.48999977  11.51999950  56.72999954
C     8.36999989  11.73999977  57.58999634
C     7.09999990  11.26999950  57.34000397
C     6.84999990  10.59999943  56.11000061
C     7.85000038  10.44000053  55.18000031
C     9.18000031  10.84000015  55.50000000
C    13.26000023  11.68000031  56.36000061
C    14.01999950  11.51000023  55.17000198
C    15.39999962  11.39000034  55.10000229
C     5.46000004  10.14999962  55.72000122
H     4.93448067  10.79624653  55.01694107
H    10.03000069  10.34000015  53.54000092
H    11.10000038  12.18999958  58.06000137
H     8.60000038  12.20999908  58.54000092
H     6.38999987  11.46000004  58.13000107
H     7.60999966  10.21999931  54.15000153
H    15.84000015  11.26999950  54.10999680
H     4.82999992  10.07999992  56.62000275
H     5.56999969   9.18000031  55.21999741
S    17.22999954  13.02000046  52.41000366
C    19.88999939  13.17999935  51.68000031
C    18.61999893  12.76000023  51.35000229
C    18.29000092  12.18000031  50.07999802
C    19.32999992  11.92999935  49.20999908
C    20.68000031  12.23999977  49.52000046
C    21.78999901  12.07999992  48.63999939
C    23.02999878  12.48999977  49.08000183
C    23.28000069  13.17000008  50.28999710
C    22.22999954  13.34000015  51.17000198
C    20.93000031  12.96000004  50.73999786
C    16.84999847  12.00000000  49.93999863
C    16.18000031  12.51999950  51.06999969
C    14.78999996  12.55000019  51.14999771
C    24.69000053  13.50000000  50.72999954
H    25.09497261  12.87477875  51.52573395
H    20.20000076  13.60000038  52.63000107
H    19.09000015  11.51000023  48.23999786
H    21.57999992  11.64999962  47.65999603
H    23.81000137  12.38999939  48.34000015
H    22.30999947  13.69999981  52.18999863
H    14.39000034  12.86999893  52.09999847
H    25.39999962  13.60000038  49.89999771
H    24.70999908  14.55000019  51.04000092
S    13.60999966  11.33999920  47.60000229
C    10.85999966  11.18999958  48.23999786
C    12.15000057  11.54999924  48.57999802
C    12.53999901  11.98999977  49.87999725
C    11.51999950  12.27000046  50.77000046
C    10.18000031  11.90999985  50.48999786
C     9.15000057  11.98999977  51.46999741
C     7.92000008  11.43000031  51.20999908
C     7.55000019  10.93000031  49.93000031
C     8.51000023  10.92000008  48.94000244
C     9.82999992  11.36999989  49.20000076
C    13.97999954  12.10999966  50.10000229
C    14.70999908  11.72999954  48.94000244
C    16.09000015  11.64999962  48.81000137
C     6.11999989  10.54999924  49.65999985
H     5.76546049  11.02508163  48.74528885
H    10.71000004  10.80000019  47.23999786
H    11.80999947  12.61999989  51.76000214
H     9.19999981  12.56999969  52.37999725
H     7.11999989  11.47999954  51.93999863
H     8.26000023  10.59000015  47.93000031
H    16.46000099  11.32999992  47.84000015
H     5.51999998  10.88999939  50.51000214
H     6.01000023   9.46000004  49.65000153
