96

S    16.93000031  12.51999950  58.52000427
C    19.60000038  12.84000015  57.69000244
C    18.30999947  12.44999981  57.41000366
C    18.02000046  11.87000084  56.13999939
C    19.02000046  11.73999977  55.19000244
C    20.35000038  12.13999939  55.47000122
C    21.40000153  12.13000107  54.52000046
C    22.72999954  12.25000000  54.84000397
C    23.06999969  12.82999992  56.09000397
C    22.01999855  13.07999992  56.95999908
C    20.65999985  12.71000004  56.76000214
C    16.60000038  11.54000092  56.07999802
C    15.85999966  11.97000027  57.21000290
C    14.47999954  12.05999947  57.25999832
C    24.51000023  13.07999992  56.47999573
H    24.85895729  12.46042156  57.30610275
H    19.85000038  13.32999992  58.62999725
H    18.78000069  11.30000019  54.22999954
H    21.02000046  11.78999996  53.55999756
H    23.45999908  11.97000027  54.08000183
H    22.19000053  13.47000027  57.95999908
H    13.82999992  12.55000019  57.97999954
H    25.13999939  13.07000065  55.58000183
H    24.61000061  14.09000015  56.88999939
S    13.38999939  10.88999939  53.64999771
C    10.64000034  10.85000038  54.26000214
C    11.92999935  11.10999966  54.64000320
C    12.30999947  11.61000061  55.93000031
C    11.26000023  11.90999985  56.77000046
C     9.89999962  11.72999954  56.39999771
C     8.85000038  11.90000057  57.34000397
C     7.53999996  11.59000015  57.05999756
C     7.17999983  11.11999989  55.76000214
C     8.19000053  10.85999966  54.86999893
C     9.55000019  11.19999981  55.11000061
C    13.75000000  11.61999893  56.13999939
C    14.47999954  11.17000008  55.01999664
C    15.86999989  11.05999947  54.99000168
C     5.75999975  10.73999977  55.43000031
H     5.34594822  11.32538414  54.60903549
H    10.36000061  10.46000004  53.27999878
H    11.36999989  12.25000000  57.80000305
H     9.21000004  12.23000050  58.30999756
H     6.84999990  11.75000000  57.88000107
H     7.90999985  10.25000000  54.01000214
H    16.47999954  10.82999992  54.12000275
H     5.15999985  10.80000019  56.35000229
H     5.88999987   9.65999985  55.28999710
S    17.73999977  13.28999996  52.39999771
C    20.43999863  13.50999928  51.59000015
C    19.13999939  13.12000084  51.33999634
C    18.71000099  12.43000031  50.15999603
C    19.61000061  12.38999939  49.12000275
C    20.95000076  12.81999969  49.29000092
C    22.00000000  12.51000023  48.37999725
C    23.31999969  12.69000053  48.70999908
C    23.71000099  13.25000000  49.94999695
C    22.76000023  13.55999947  50.89000320
C    21.38999939  13.34000015  50.54999924
C    17.28999901  12.09000015  50.10000229
C    16.61999893  12.51000023  51.26999664
C    15.22999954  12.58999920  51.35000229
C    25.17000008  13.48000050  50.27000046
H    25.46835709  13.01115417  51.20769119
H    20.76999855  14.09999943  52.43999863
H    19.27000046  11.85999966  48.22999954
H    21.70000076  11.95000076  47.49000168
H    24.11999893  12.22000027  48.15000153
H    23.00000000  13.81999969  51.91999817
H    14.80999947  13.09000015  52.22000122
H    25.76999855  12.92000008  49.54000092
H    25.45000076  14.53999996  50.26000214
S    14.07999992  11.28999901  47.76000214
C    11.36999989  11.35000038  48.50000000
C    12.68000031  11.64000034  48.79000092
C    13.02999973  12.15999985  50.07999802
C    12.07999992  12.57999992  50.97999954
C    10.72999954  12.25999928  50.66999817
C     9.70000076  12.57999992  51.59999847
C     8.39999962  12.25999928  51.31999969
C     8.01999950  11.61000061  50.12000275
C     9.00000000  11.18999958  49.25000000
C    10.36000061  11.54000092  49.47999954
C    14.47999954  12.20000076  50.24000168
C    15.17000008  11.80999947  49.06000137
C    16.54999924  11.72000027  48.96999741
C     6.61999989  11.10000038  49.84000397
H     6.08669949  11.75418282  49.15026855
H    11.16000080  10.93000031  47.51999664
H    12.46999931  13.17000008  51.81000137
H    10.01999950  12.98999977  52.56000137
H     7.63999987  12.38000011  52.09000015
H     8.82999992  10.53999996  48.40000153
H    17.13999939  11.56000042  48.06999969
H     5.93999958  11.07999992  50.68999863
H     6.67999983  10.10000038  49.38999939
