96

S    16.70999908  12.42000008  59.02000046
C    19.40999985  12.43999958  58.34000015
C    18.12000084  12.18000031  57.95999908
C    17.77000046  11.80999947  56.62000275
C    18.78000069  11.50000000  55.72999954
C    20.12000084  11.73999977  56.09000397
C    21.12999916  11.71000004  55.07999802
C    22.43000031  11.97999954  55.41999817
C    22.84000015  12.32999992  56.72999954
C    21.83000183  12.51000023  57.64999771
C    20.45999908  12.18999958  57.41000366
C    16.32999992  11.61000061  56.50000000
C    15.62999916  11.96000004  57.68000031
C    14.26000023  12.10999966  57.80000305
C    24.28999901  12.63000011  57.04000092
H    24.68035698  12.06220722  57.88459015
H    19.65999985  12.79999924  59.33000183
H    18.50000000  11.18999958  54.72000122
H    20.94000053  11.47999954  54.02999878
H    23.23999786  11.82999992  54.71000290
H    22.14999962  12.94999981  58.57999802
H    13.82999992  12.41000080  58.75000000
H    24.86999893  12.50000000  56.11999893
H    24.37999916  13.69999981  57.25000000
S    13.02999973  11.39000034  54.09000015
C    10.38000011  11.07999992  54.75000000
C    11.63000011  11.49000072  55.17000198
C    12.00000000  11.85999966  56.50000000
C    10.98000050  11.92999935  57.43999863
C     9.68000031  11.52999973  57.04999924
C     8.71999931  11.54999924  58.09000015
C     7.42999983  11.16000080  57.81000137
C     7.09000015  10.92000008  56.45999908
C     7.96000004  10.93000031  55.38999939
C     9.32999992  11.19999981  55.68999863
C    13.43999958  11.82999992  56.70000076
C    14.11999893  11.52999973  55.48999786
C    15.50000000  11.39999962  55.38999939
C     5.64000034  10.60999966  56.18999863
H     5.28541517  11.19151974  55.33899689
H    10.21000004  10.86999989  53.69999695
H    11.28999901  12.18000031  58.44999695
H     8.98999977  11.89000034  59.09000015
H     6.63999987  11.07999992  58.55999756
H     7.76000023  10.47999954  54.41999817
H    15.95000076  11.18000031  54.43000031
H     4.98000002  10.80999947  57.04000092
H     5.51000023   9.52000046  56.06999969
S    13.73999977   9.17000008  51.04000092
C    11.07999992   8.48999977  51.59999847
C    12.41000080   8.39999962  51.93000031
C    12.81999969   7.82000017  53.18000031
C    11.90000057   7.22000027  54.02000046
C    10.52999973   7.40000010  53.68999863
C     9.50000000   7.07000017  54.61000061
C     8.17000008   7.04999971  54.27999878
C     7.76000023   7.82000017  53.16999817
C     8.69000053   8.30999947  52.27000427
C    10.06999969   8.02999973  52.48000336
C    14.23999977   8.06999969  53.37999725
C    14.89999962   8.73999977  52.31999969
C    16.25000000   9.09000015  52.29000092
C     6.32999992   8.26000023  52.91999817
H     5.98103428   7.83269501  51.97992706
H    10.80000019   9.13999939  50.77000046
H    12.25999928   6.74000025  54.92000198
H     9.63999939   6.71000004  55.63000107
H     7.37999964   6.76999998  54.98000336
H     8.43000031   9.01000023  51.47999573
H    16.75000000   9.64999962  51.51000214
H     5.69000006   7.88999987  53.73000336
H     6.26999950   9.35000038  52.81000137
S    17.53999901   7.31999969  55.63999939
C    20.20000076   7.96000004  55.12000275
C    18.86999893   8.18000031  54.84000397
C    18.40999985   8.76999950  53.61999893
C    19.37000084   9.09000015  52.67000198
C    20.73999786   8.85999966  52.90999985
C    21.71999931   9.25000000  51.95000076
C    23.05999947   9.25000000  52.29000092
C    23.50000000   8.78999996  53.55999756
C    22.57999802   8.30000019  54.45000076
C    21.18000031   8.36999989  54.18000031
C    16.97000122   8.69000053  53.41999817
C    16.36000061   7.97999954  54.47999954
C    15.01000023   7.63999987  54.45999908
C    24.97999954   8.75000000  53.88000107
H    25.24250984   8.92737103  54.92294312
H    20.52000046   7.44999981  56.02000427
H    19.12999916   9.51000023  51.70000076
H    21.44000053   9.75000000  51.03000259
H    23.81000137   9.68000031  51.63999939
H    22.95000076   7.77999973  55.34000015
H    14.60999966   7.03000021  55.26000214
H    25.39999962   9.52999973  53.23999786
H    25.30999947   7.73999977  53.61000061
