96

S    16.69000053  12.35000038  58.66000366
C    19.43000031  12.15000057  58.09000015
C    18.12000084  12.01000023  57.67000198
C    17.73999977  11.47999954  56.39999771
C    18.75000000  11.13000011  55.52000046
C    20.10000038  11.31000042  55.89000320
C    21.12999916  11.28000069  54.89999771
C    22.43999863  11.51000023  55.22999573
C    22.85000038  11.90000057  56.52999878
C    21.84999847  11.96000004  57.47000122
C    20.46999931  11.82000065  57.18000031
C    16.31000137  11.32999992  56.18999863
C    15.62999916  11.85999966  57.31999969
C    14.23999977  11.97000027  57.38999939
C    24.21999931  12.48999977  56.79999924
H    24.78867340  11.83602524  57.46107864
H    19.71999931  12.68000031  58.99000168
H    18.50000000  10.97000027  54.47000122
H    20.96999931  11.03000069  53.85000229
H    23.23999786  11.35000038  54.51000214
H    22.13999939  12.18000031  58.50000000
H    13.80000019  12.28000069  58.33000183
H    24.71999931  12.55000019  55.83000183
H    24.07999992  13.48000050  57.25000000
S    13.01000023  10.62999916  53.86000061
C    10.36999893  10.34999943  54.73999786
C    11.57999992  11.00000000  54.85000229
C    12.00000000  11.56999969  56.10000229
C    11.02000046  11.77999973  57.04999924
C     9.68000031  11.39999962  56.84999847
C     8.65999985  11.72999954  57.78999710
C     7.39000034  11.23000050  57.63999939
C     7.13000011  10.34000015  56.56000137
C     8.05000019  10.06000042  55.58000183
C     9.39000034  10.52999973  55.73999786
C    13.45000076  11.69000053  56.26999664
C    14.11999893  11.13999939  55.14999771
C    15.48999977  10.92000008  55.13999939
C     5.69000006   9.88000011  56.43000031
H     5.29871273  10.27128792  55.49090958
H    10.17000008   9.68000031  53.90999603
H    11.28999901  12.28999996  57.97000122
H     8.92000008  12.39999962  58.61000061
H     6.57999992  11.57999992  58.26000214
H     7.86999989   9.53999996  54.64000320
H    15.95000076  10.36000061  54.33000183
H     5.10999966  10.34000015  57.23999786
H     5.65999985   8.78000069  56.46999741
S    16.97000122  12.53000069  52.85999680
C    19.69000053  12.53000069  52.15999985
C    18.38000107  12.28000069  51.81999969
C    18.04999924  11.71000004  50.54999924
C    19.04999924  11.40999985  49.65000153
C    20.36999893  11.82000065  49.93999863
C    21.42000008  11.73999977  48.97999573
C    22.75000000  11.98999977  49.20999908
C    23.12000084  12.53000069  50.47000122
C    22.10000038  12.71000004  51.38000107
C    20.73999786  12.32999992  51.23000336
C    16.61000061  11.59999943  50.34000015
C    15.93000031  12.02999973  51.51000214
C    14.55999947  12.23000050  51.45999908
C    24.54999924  12.90999985  50.77000046
H    25.03382492  12.29810429  51.53131104
H    19.92000008  13.21000004  52.97999954
H    18.78999901  11.11999989  48.62999725
H    21.25999832  11.46000004  47.94000244
H    23.51000023  11.82999992  48.44999695
H    22.46000099  13.05999947  52.34000397
H    14.04999924  12.64000034  52.31999969
H    25.06999969  12.86999893  49.80999756
H    24.59000015  13.92000008  51.22000122
S    13.48000050  10.90999985  47.83000183
C    10.80000019  10.98000050  48.46000290
C    12.07999992  11.32999992  48.83999634
C    12.39999962  11.89000034  50.12000275
C    11.39999962  12.01000023  51.06999969
C    10.07999992  11.64000034  50.70999908
C     9.04999924  11.72999954  51.69000244
C     7.76000023  11.32999992  51.44000244
C     7.40000010  10.81999969  50.15999603
C     8.39999962  10.71000004  49.22000122
C     9.75000000  11.10999966  49.40999985
C    13.83999920  11.95000076  50.28999710
C    14.52999973  11.39000034  49.18000031
C    15.90999985  11.21000099  49.19000244
C     6.00000000  10.44000053  49.75999832
H     5.53787518  11.17940044  49.10591125
H    10.62999916  10.44000053  47.54000092
H    11.73999977  12.30999947  52.04999924
H     9.39000034  12.05000019  52.67000198
H     7.17999983  11.33999920  52.35000229
H     8.19000053  10.34000015  48.22000122
H    16.45000076  10.93000031  48.29000092
H     5.45000029  10.29000092  50.70000076
H     6.07999992   9.40999985  49.38999939
