96

S    16.97000122  12.42000008  58.70999908
C    19.65999985  12.35999966  58.09999847
C    18.37000084  12.13000107  57.65999603
C    18.02999878  11.47999954  56.43000031
C    19.07999992  11.23999977  55.56999969
C    20.43000031  11.46000004  55.93999863
C    21.47999954  11.39000034  54.98000336
C    22.79000092  11.67000008  55.31000137
C    23.02999878  12.27000046  56.56999969
C    22.04999924  12.48999977  57.50999832
C    20.72999954  12.03999996  57.22000122
C    16.59000015  11.50000000  56.23000336
C    15.90000057  11.90000057  57.39999771
C    14.52000046  12.06999969  57.44999695
C    24.41999817  12.75000000  56.91999817
H    24.93049240  12.09061337  57.62192917
H    19.85999870  12.90999985  59.01000214
H    18.89000130  11.07999992  54.51000214
H    21.19999886  11.13000011  53.96999741
H    23.55999947  11.72999954  54.54999924
H    22.26000023  13.09999943  58.37999725
H    14.09000015  12.36999989  58.40999985
H    24.99000168  12.65999985  55.98999786
H    24.38999939  13.81000042  57.23999786
S    13.31999969  10.65000057  53.99000168
C    10.69000053  10.44999981  54.75000000
C    11.90999985  11.03999996  54.99000168
C    12.30999947  11.68000031  56.20999908
C    11.23999977  11.84000015  57.08000183
C     9.90999985  11.42000008  56.83000183
C     8.89999962  11.54999924  57.81999969
C     7.59000015  11.26000023  57.49000168
C     7.25000000  10.67999935  56.24000168
C     8.23999977  10.43000031  55.31999969
C     9.59999943  10.78999996  55.58000183
C    13.76000023  11.72999954  56.32999802
C    14.47000027  11.21000099  55.22999573
C    15.85999966  11.18000031  55.07999802
C     5.82000017  10.24000072  55.97999954
H     5.36392498  10.73883247  55.12485886
H    10.47000027   9.92999935  53.81999969
H    11.47999954  12.11999989  58.09999847
H     9.17000008  11.90999985  58.81000137
H     6.77999973  11.54000092  58.15000153
H     7.99000025   9.94999981  54.38999939
H    16.36999893  10.85999966  54.18000031
H     5.17000008  10.44999981  56.84000015
H     5.92000008   9.15999985  55.79000092
S    13.73000050   8.80999947  51.04999924
C    11.07999992   8.02999973  51.62000275
C    12.42000008   8.01000023  51.93999863
C    12.84000015   7.59000015  53.25000000
C    11.94000053   6.98999977  54.10999680
C    10.57000065   6.90000010  53.75999832
C     9.61999989   6.34999990  54.66999817
C     8.31999969   6.28999996  54.22999954
C     7.88000011   6.89000034  53.02000046
C     8.76000023   7.50999975  52.16999817
C    10.14000034   7.40999985  52.49000168
C    14.28999996   7.63000011  53.34999847
C    14.91000080   8.36999989  52.29999924
C    16.28999901   8.56999969  52.28000259
C     6.38999987   7.04999971  52.81000137
H     6.00585270   6.82947111  51.81406021
H    10.67999935   8.61999989  50.79999924
H    12.13999939   6.76000023  55.14999771
H     9.85999966   5.84000015  55.59999847
H     7.55000019   5.93999958  54.91000366
H     8.38999939   7.96999979  51.25999832
H    16.76000023   9.13000011  51.47999573
H     5.89999962   6.32000017  53.47000122
H     6.14000034   8.10000038  52.97000122
S    17.63000107   6.94999981  55.65999985
C    20.29999924   7.57000017  55.17000198
C    18.98999977   7.64999962  54.77000427
C    18.53000069   8.19999981  53.53000259
C    19.55000114   8.78000069  52.78999710
C    20.92000008   8.78000069  53.15999985
C    21.94000053   9.23999977  52.29000092
C    23.26999855   9.06999969  52.62000275
C    23.64999962   8.36000061  53.79000092
C    22.67999840   8.01000023  54.69999695
C    21.30000114   8.26000023  54.43999863
C    17.10000038   8.09000015  53.31999969
C    16.46000099   7.49000025  54.43000031
C    15.08999920   7.27999973  54.43999863
C    25.06999969   7.88999987  54.03999710
H    25.45638466   8.25491714  54.99164963
H    20.55000114   6.90999985  56.00000000
H    19.12999916   9.13999939  51.84999847
H    21.61999893   9.43000031  51.26999664
H    24.05999947   9.30000019  51.91999817
H    22.98000145   7.44999981  55.58000183
H    14.67000008   6.91999960  55.38000107
H    25.69999886   8.42000008  53.30999756
H    25.10999870   6.78999996  54.02999878
