96

S    16.52000046  12.23999977  58.47999954
C    19.13999939  12.81999969  57.60000229
C    17.87999916  12.30999947  57.35000229
C    17.54999924  11.75000000  56.06999969
C    18.53999901  11.54000092  55.13999939
C    19.84000015  12.05999947  55.34000015
C    20.95999908  11.84999943  54.47999954
C    22.25000000  12.17000008  54.85000229
C    22.50000000  12.84999943  56.06999969
C    21.44000053  13.14000034  56.90000153
C    20.10000038  12.76999950  56.56000137
C    16.10999870  11.59000015  55.96000290
C    15.39999962  11.94000053  57.14000320
C    14.01999950  11.90000057  57.30999756
C    23.88000107  13.22000027  56.55000305
H    24.24249077  12.71535587  57.44556808
H    19.45000076  13.15000057  58.59000397
H    18.39999962  11.09000015  54.15999985
H    20.79000092  11.32999992  53.54000092
H    23.02000046  11.87999916  54.15000153
H    21.61999893  13.48000050  57.90999985
H    13.60000038  12.06999969  58.29999924
H    24.57999992  13.04999924  55.72000122
H    23.78999901  14.28999996  56.79000092
S    12.79999924  10.65999985  53.75999832
C    10.10000038  10.53999996  54.52999878
C    11.39999962  10.90000057  54.81999969
C    11.76000023  11.47999954  56.07999802
C    10.80000019  11.78999996  57.02000046
C     9.47000027  11.36999989  56.76000214
C     8.47000027  11.51999950  57.76000214
C     7.16000032  11.13999939  57.58999634
C     6.80999994  10.55999947  56.33999634
C     7.76000023  10.26999950  55.38999939
C     9.10000038  10.72999954  55.52000046
C    13.21000004  11.52999973  56.23000336
C    13.89999962  11.21000099  55.02999878
C    15.27999973  11.23999977  54.87999725
C     5.33999968  10.31999969  56.04000092
H     5.01861477  11.01990509  55.26867676
H     9.96000004   9.98999977  53.61000061
H    11.13000011  12.13000107  58.00000000
H     8.82000065  12.02999973  58.66000366
H     6.43000031  11.40999985  58.34000015
H     7.50999975   9.86999989  54.41999817
H    15.82999992  10.93999958  53.99000168
H     4.71000004  10.46000004  56.91999817
H     5.21000004   9.28999996  55.70999908
S    16.72999954  13.12000084  52.61000061
C    19.45999908  13.21000004  52.02000046
C    18.20000076  12.79000092  51.66999817
C    17.87999916  12.23000050  50.40000153
C    18.94000053  11.95000076  49.54999924
C    20.25000000  12.31999969  49.89999771
C    21.34000015  12.05000019  49.02000046
C    22.62000084  12.48999977  49.25000000
C    22.93000031  13.14000034  50.47000122
C    21.91999817  13.27999973  51.38999939
C    20.55999947  12.93000031  51.17000198
C    16.46000099  12.13000107  50.11000061
C    15.73999977  12.67000008  51.20999908
C    14.35999966  12.56999969  51.36000061
C    24.37000084  13.55000019  50.72999954
H    24.79730415  12.86631203  51.46353912
H    19.77000046  13.75000000  52.90999985
H    18.68000031  11.28999901  48.72000122
H    21.09999847  11.42000008  48.15999985
H    23.40999985  12.23999977  48.54999924
H    22.11000061  13.57999992  52.41000366
H    13.92000008  12.92000008  52.29000092
H    24.86999893  13.34000015  49.78000259
H    24.44000053  14.60000038  51.04999924
S    13.28999996  11.05999947  47.84999847
C    10.59999943  10.88000107  48.50999832
C    11.84000015  11.40999985  48.81000137
C    12.20000076  11.95000076  50.08999634
C    11.19999981  11.92999935  51.04999924
C     9.88000011  11.46999931  50.79999924
C     8.75000000  11.78999996  51.59000015
C     7.44999981  11.54999924  51.19999695
C     7.17999983  10.85999966  49.99000168
C     8.25000000  10.64000034  49.13999939
C     9.59999943  10.90000057  49.51000214
C    13.61999989  12.22000027  50.21999741
C    14.34000015  11.79999924  49.06999969
C    15.72000027  11.68000031  49.00000000
C     5.82000017  10.43000031  49.50000000
H     5.47712231  11.03003502  48.65709305
H    10.42000008  10.81999969  47.43999863
H    11.44999981  12.42000008  51.98999786
H     8.97999954  12.38999939  52.47000122
H     6.61000013  11.95000076  51.77000046
H     8.10000038  10.19999981  48.15999985
H    16.29999924  11.23000050  48.20999908
H     5.19999981  10.51000023  50.40999985
H     5.78999996   9.35000038  49.31999969
