96

S    16.68000031  12.10000038  59.00000000
C    19.34999847  12.39999962  58.31999969
C    18.09999847  11.95000076  57.95000076
C    17.72999954  11.26999950  56.75000000
C    18.77000046  11.03000069  55.86999893
C    20.10999870  11.35000038  56.20999908
C    21.14999962  10.95999908  55.31000137
C    22.46000099  11.13000011  55.70000076
C    22.78000069  11.68000031  56.97000122
C    21.77999878  12.11999989  57.80000305
C    20.39999962  11.95000076  57.48000336
C    16.28999901  11.10000038  56.60999680
C    15.55999947  11.54999924  57.74000168
C    14.18000031  11.75000000  57.70000076
C    24.18999863  12.17000008  57.21000290
H    24.56722641  11.88530064  58.19221878
H    19.62000084  12.94000053  59.22000122
H    18.56999969  10.60999966  54.88999939
H    20.81999969  10.44999981  54.40999985
H    23.26000023  10.95000076  55.00000000
H    22.04999924  12.82999992  58.59000397
H    13.66000080  12.09000015  58.60000229
H    24.89999962  11.84000015  56.43000031
H    24.27000046  13.25000000  57.08000183
S    13.03999996  10.59999943  54.09000015
C    10.32999992  10.62999916  54.59999847
C    11.59000015  10.86999989  55.06999969
C    11.97999954  11.32999992  56.38000107
C    10.95000076  11.64000034  57.25000000
C     9.63000011  11.28999901  56.90000153
C     8.56999969  11.50000000  57.81999969
C     7.26000023  11.18000031  57.55000305
C     6.97000027  10.81999969  56.19999695
C     7.94000053  10.72999954  55.22999573
C     9.30999947  10.85999966  55.56000137
C    13.42000008  11.38000011  56.59999847
C    14.11999893  10.86999989  55.47999954
C    15.51000023  10.77999973  55.50000000
C     5.53999996  10.48999977  55.83000183
H     5.26235819  10.98121166  54.89741135
H    10.19999981  10.11000061  53.64999771
H    11.03000069  11.97000027  58.29000092
H     8.90999985  11.77999973  58.81999969
H     6.57000017  11.10000038  58.39000320
H     7.68000031  10.34999943  54.25000000
H    15.98000050  10.52000046  54.54999924
H     4.79999971  10.65999985  56.63000107
H     5.59000015   9.43000031  55.56999969
S    17.28999901  12.20000076  53.02000046
C    20.00000000  12.20000076  52.36999893
C    18.68999863  12.06999969  51.95000076
C    18.35000038  11.68000031  50.61000061
C    19.36000061  11.52999973  49.68000031
C    20.71000099  11.77000046  50.04000092
C    21.81999969  11.73999977  49.15000153
C    23.12000084  12.05000019  49.48999786
C    23.36000061  12.51999950  50.80999756
C    22.34999847  12.53000069  51.73999786
C    21.02999878  12.10999966  51.39999771
C    16.90999985  11.73999977  50.43000031
C    16.20000076  11.98999977  51.63000107
C    14.84000015  12.25999928  51.65999985
C    24.69000053  13.04999924  51.26999664
H    25.10754395  12.37060547  52.01308441
H    20.17999840  12.39999962  53.41999817
H    19.11999893  11.18000031  48.68000031
H    21.61000061  11.61000061  48.09999847
H    23.92999840  12.05999947  48.75999832
H    22.50999832  12.89000034  52.75000000
H    14.44000053  12.67000008  52.58999634
H    25.38999939  13.22000027  50.44000244
H    24.44000053  14.00000000  51.75000000
S    13.73999977  11.14999962  47.95000076
C    11.06999969  11.09000015  48.63999939
C    12.35000038  11.39999962  49.02000046
C    12.64999962  11.90999985  50.33000183
C    11.59000015  12.09000015  51.20999908
C    10.27999973  11.73999977  50.80999756
C     9.23999977  11.96000004  51.75000000
C     7.95000029  11.63000011  51.42000198
C     7.62000036  11.00999928  50.18000031
C     8.60999966  10.84000015  49.23999786
C     9.96000004  11.21999931  49.51000214
C    14.09000015  11.92999935  50.52999878
C    14.77000046  11.56999969  49.34000015
C    16.14999962  11.54999924  49.26000214
C     6.21999979  10.44999981  50.01999664
H     5.74285221  11.04821491  49.24374390
H    10.86999989  10.82999992  47.60000229
H    11.75000000  12.36999989  52.23999786
H     9.55000019  12.50000000  52.64999771
H     7.17999983  11.97999954  52.09999847
H     8.42000008  10.26000023  48.34999847
H    16.62999916  11.26000023  48.33000183
H     5.68000031  10.50000000  50.97000122
H     6.32999992   9.36999989  49.82999802
