96

S    16.10999870  12.64000034  58.76999664
C    18.86999893  12.64999962  58.23999786
C    17.59000015  12.30000019  57.84999847
C    17.28999901  11.65999985  56.60999680
C    18.36000061  11.26999950  55.81999969
C    19.69000053  11.68000031  56.11000061
C    20.76999855  11.43000031  55.22999573
C    22.04000092  11.87000084  55.51000214
C    22.32999992  12.51999950  56.73999786
C    21.28999901  12.72999954  57.61000061
C    19.93000031  12.42000008  57.32999802
C    15.85999966  11.61000061  56.35000229
C    15.07999992  12.15000057  57.39999771
C    13.71999931  12.41000080  57.29000092
C    23.75000000  13.01000023  56.93000031
H    24.31103897  12.32823086  57.56916046
H    19.01000023  13.22999954  59.13999939
H    18.22000122  10.85000038  54.82999802
H    20.53999901  11.06999969  54.22999954
H    22.73999977  11.82999992  54.66999817
H    21.45999908  13.28999996  58.53000259
H    13.17000008  12.89999962  58.08000183
H    24.27000046  13.22999954  55.98999786
H    23.68999863  14.01999950  57.34000397
S    12.76999950  10.78999996  53.79000092
C    10.01000023  10.69000053  54.48999786
C    11.31000042  11.05999947  54.75999832
C    11.59000015  11.72999954  55.98999786
C    10.57999992  12.05000019  56.88000107
C     9.22999954  11.72999954  56.58000183
C     8.19999981  11.97000027  57.54000092
C     6.90999985  11.57999992  57.25999832
C     6.63000011  10.90000057  56.04999924
C     7.60999966  10.62000084  55.12000275
C     8.93999958  11.05000019  55.34999847
C    13.02000046  11.94000053  56.17000198
C    13.78999901  11.36999989  55.12000275
C    15.18000031  11.25000000  55.19000244
C     5.19000006  10.57999992  55.72999954
H     4.77789593  11.08447170  54.85605621
H     9.73999977  10.08999920  53.61999893
H    10.95000076  12.31999969  57.85999680
H     8.42000008  12.57999992  58.40999985
H     6.07999992  11.84999943  57.91999817
H     7.27999973  10.01000023  54.27999878
H    15.71000004  10.77999973  54.36000061
H     4.56999969  10.81999969  56.59999847
H     5.05000019   9.52000046  55.50000000
S    17.20999908  12.71000004  52.90999985
C    19.93000031  12.93000031  52.18000031
C    18.65999985  12.46999931  51.91999817
C    18.30000114  11.94000053  50.65000153
C    19.27999878  11.84000015  49.66999817
C    20.59999847  12.30999947  49.87999725
C    21.65999985  12.09000015  48.95999908
C    22.93999863  12.43999958  49.29000092
C    23.23999786  13.02999973  50.54000092
C    22.27000046  13.22000027  51.50000000
C    20.94000053  12.81999969  51.18000031
C    16.86000061  11.87000084  50.47000122
C    16.10000038  12.27000046  51.59999847
C    14.73999977  12.53999901  51.56000137
C    24.65999985  13.40999985  50.90999985
H    25.12157440  12.77089500  51.66272354
H    20.19000053  13.22999954  53.18999863
H    19.04000092  11.42000008  48.69999695
H    21.48999977  11.43000031  48.11000061
H    23.75000000  12.18000031  48.61999893
H    22.34999847  13.73999977  52.44999695
H    14.22000027  12.92000008  52.43999863
H    25.22999954  13.45000076  49.97000122
H    24.51999855  14.44000053  51.25999832
S    13.69999981  11.16000080  48.02000046
C    10.95000076  11.67000008  48.46000290
C    12.25000000  11.64999962  48.90999603
C    12.56999969  12.13000107  50.21999741
C    11.50000000  12.43999958  51.04000092
C    10.14999962  12.32999992  50.65000153
C     9.06000042  12.41000080  51.58000183
C     7.78999996  12.06999969  51.18999863
C     7.44000006  11.68000031  49.86999893
C     8.48999977  11.59000015  48.99000168
C     9.85000038  11.87999916  49.31999969
C    14.01000023  12.15999985  50.41999817
C    14.77000046  11.64999962  49.34000015
C    16.14999962  11.50000000  49.31999969
C     6.00000000  11.36000061  49.52000046
H     5.52944231  12.06583691  48.83555222
H    10.77000046  11.32999992  47.43999863
H    11.64999962  12.75000000  52.06999969
H     9.25000000  12.46000099  52.64999771
H     7.00999975  12.18000031  51.93999863
H     8.36000061  11.14999962  48.01000214
H    16.68000031  11.16000080  48.43000031
H     5.40000010  11.36000061  50.43000031
H     5.95000029  10.39000034  49.01000214
