96

S    16.64999962  12.51999950  58.77999878
C    19.34999847  12.58999920  58.18000031
C    18.09000015  12.18999958  57.80000305
C    17.76000023  11.51000023  56.58000183
C    18.82999992  11.11999989  55.80999756
C    20.13999939  11.61000061  56.03000259
C    21.19999886  11.39000034  55.10000229
C    22.50000000  11.63000011  55.47000122
C    22.77000046  12.23999977  56.72999954
C    21.77000046  12.46999931  57.63999939
C    20.40999985  12.20999908  57.30999756
C    16.31999969  11.36999989  56.39999771
C    15.59000015  11.92999935  57.49000168
C    14.19999981  11.94000053  57.45999908
C    24.21999931  12.50000000  57.09999847
H    24.70358658  11.84573460  57.82538223
H    19.52999878  13.15000057  59.09000015
H    18.61999893  10.69000053  54.82999802
H    21.01000023  10.85999966  54.18000031
H    23.28000069  11.39000034  54.75999832
H    22.01000023  12.92000008  58.60000229
H    13.69999981  12.13999939  58.40999985
H    24.82000160  12.55000019  56.18000031
H    24.25000000  13.50000000  57.55000305
S    13.19000053  10.69000053  53.87000275
C    10.44000053  10.72000027  54.45999908
C    11.72999954  11.03000069  54.82999802
C    12.06999969  11.38000011  56.17000198
C    11.11999989  11.68000031  57.12999725
C     9.77999973  11.46999931  56.72999954
C     8.80000019  11.59999943  57.75000000
C     7.49000025  11.26000023  57.50000000
C     7.11999989  10.80000019  56.20999908
C     8.07999992  10.54999924  55.25000000
C     9.43000031  10.95000076  55.44000244
C    13.52000046  11.46999931  56.33999634
C    14.27000046  11.00000000  55.22999573
C    15.65000057  10.81999969  55.31000137
C     5.66999960  10.40999985  56.02000427
H     5.20614576  10.98803234  55.22074509
H    10.10000038  10.48999977  53.46000290
H    11.31999969  11.97000027  58.15999985
H     9.11999989  11.85999966  58.75999832
H     6.78999996  11.28999901  58.33000183
H     7.79999971  10.26000023  54.23999786
H    16.17000008  10.39000034  54.45999908
H     5.13999987  10.67000008  56.93999863
H     5.64000034   9.34000015  55.73999786
S    13.94000053   8.57999992  50.91999817
C    11.21000099   8.23000050  51.44000244
C    12.51000023   8.03999996  51.83000183
C    12.93000031   7.49000025  53.08000183
C    11.89000034   6.96000004  53.81999969
C    10.51000023   7.09999990  53.50999832
C     9.50000000   6.75000000  54.45000076
C     8.17000008   6.91999960  54.12000275
C     7.86999989   7.50000000  52.85999680
C     8.80999947   7.97999954  51.97999954
C    10.17000008   7.69999981  52.25000000
C    14.37000084   7.59000015  53.27999878
C    15.07999992   8.23000050  52.23999786
C    16.46000099   8.39999962  52.19999695
C     6.38999987   7.72000027  52.63999939
H     6.05462551   7.53447390  51.61960602
H    10.93999958   8.89000034  50.61999893
H    12.13999939   6.38000011  54.71000290
H     9.92999935   6.38000011  55.37000275
H     7.44000006   6.56000042  54.84000397
H     8.56000042   8.59000015  51.11000061
H    17.02000046   8.82000065  51.37000275
H     5.84999990   7.09000015  53.36000061
H     6.07999992   8.73999977  52.88999939
S    17.61999893   6.86999989  55.70999908
C    20.35000038   7.09999990  54.94999695
C    19.01000023   7.34000015  54.69999695
C    18.60000038   8.06999969  53.54999924
C    19.52999878   8.59000015  52.67000198
C    20.89999962   8.50000000  53.02999878
C    21.90000153   8.97999954  52.14000320
C    23.23999786   8.80999947  52.43000031
C    23.67000198   8.18000031  53.62999725
C    22.70999908   7.57000017  54.40999985
C    21.31999969   7.82999992  54.22999954
C    17.15999985   7.99000025  53.34000015
C    16.50000000   7.35000038  54.41999817
C    15.13000011   7.13000011  54.36000061
C    25.12000084   7.96999979  53.95999908
H    25.45408821   8.34673786  54.92672348
H    20.68000031   6.34000015  55.65000153
H    19.22999954   8.88000011  51.65999985
H    21.65999985   9.39999962  51.17000198
H    23.94000053   9.19000053  51.69000244
H    23.00000000   6.93000031  55.24000168
H    14.55999947   6.54999971  55.08999634
H    25.76000023   8.40999985  53.18999863
H    25.27000046   6.88000011  53.89999771
