96

S    16.64999962  12.34000015  58.66000366
C    19.37000084  12.51999950  58.00000000
C    18.11000061  12.06999969  57.68000031
C    17.73999977  11.59999943  56.38000107
C    18.77000046  11.56999969  55.45000076
C    20.10999870  11.94000053  55.73999786
C    21.17000198  11.97000027  54.79999924
C    22.42000198  12.51000023  55.01999664
C    22.75000000  13.07000065  56.27999878
C    21.73999977  12.94999981  57.21000290
C    20.40999985  12.46999931  57.04000092
C    16.31000137  11.46999931  56.17000198
C    15.59000015  11.82000065  57.34000397
C    14.19999981  11.82000065  57.35000229
C    24.20000076  13.20000076  56.70999908
H    24.49797058  12.45507336  57.44783401
H    19.63999939  12.96000004  58.95999908
H    18.48999977  11.35000038  54.41999817
H    20.84000015  11.64000034  53.81000137
H    23.12999916  12.58999920  54.20000076
H    21.83000183  13.34000015  58.22000122
H    13.71000099  11.98999977  58.29999924
H    24.79999924  13.12000084  55.79000092
H    24.34999847  14.22000027  57.05999756
S    13.15999985  11.17000008  53.59000397
C    10.39999962  10.88999939  54.19000244
C    11.68000031  11.21999931  54.56999969
C    12.05000019  11.47999954  55.93000031
C    11.03000069  11.52999973  56.86999893
C     9.68999958  11.23999977  56.52000046
C     8.67000008  11.31000042  57.50000000
C     7.36000013  11.05000019  57.16999817
C     7.03999996  10.62999916  55.84999847
C     8.01999950  10.51000023  54.89999771
C     9.38000011  10.82999992  55.17000198
C    13.48000050  11.57999992  56.17000198
C    14.22999954  11.36999989  54.99000168
C    15.62000084  11.32999992  54.95999908
C     5.60999966  10.21999931  55.59000015
H     5.17581415  10.86771965  54.82839584
H    10.26999950  10.55999947  53.15999985
H    11.31000042  11.63000011  57.91999817
H     9.07999992  11.54999924  58.47999954
H     6.63000011  11.05999947  57.97999954
H     7.85000038  10.01000023  53.95000076
H    16.18999863  11.25000000  54.03999710
H     4.97000027  10.01999950  56.46999741
H     5.78000021   9.23999977  55.12000275
S    16.97999954  13.17999935  52.49000168
C    19.68000031  13.27000046  51.68000031
C    18.40999985  12.77999973  51.52000046
C    18.04999924  12.11999989  50.30000305
C    19.04000092  11.92000008  49.36000061
C    20.39999962  12.25999928  49.56999969
C    21.44000053  12.07999992  48.61000061
C    22.73999977  12.39999962  48.92000198
C    23.03999901  13.14000034  50.08999634
C    22.06999969  13.38999939  51.04000092
C    20.73999786  12.97000027  50.77999878
C    16.61000061  12.06999969  50.12000275
C    15.88999939  12.65999985  51.18999863
C    14.51000023  12.76000023  51.16000366
C    24.47000122  13.45000076  50.45999908
H    24.93477249  12.75641823  51.16073608
H    19.97999954  13.83999920  52.55000305
H    18.89000130  11.51000023  48.36000061
H    21.18999863  11.59000015  47.67000198
H    23.50000000  11.94000053  48.29999924
H    22.32999992  13.82999992  52.00000000
H    13.99000072  13.09999943  52.04999924
H    25.06000137  13.42000008  49.54000092
H    24.51000023  14.51000023  50.75000000
S    13.45999908  11.28999901  47.60000229
C    10.82999992  11.06999969  48.33000183
C    12.05999947  11.59000015  48.64999771
C    12.39999962  12.15000057  49.92000198
C    11.39000034  12.35000038  50.84999847
C    10.06999969  11.97000027  50.50000000
C     9.03999996  12.01000023  51.47999573
C     7.83999968  11.35000038  51.33999634
C     7.57000017  10.62999916  50.14999771
C     8.56999969  10.52999973  49.20999908
C     9.78999996  11.26000023  49.27999878
C    13.82999992  12.39999962  49.99000168
C    14.53999996  11.82999992  48.89999771
C    15.90999985  11.64000034  48.97999573
C     6.17999983  10.11999989  49.84000397
H     5.69488239  10.71926212  49.06951904
H    10.64000034  10.50000000  47.42000198
H    11.47999954  12.75000000  51.84999847
H     9.22999954  12.53000069  52.41000366
H     7.02000046  11.42000008  52.04999924
H     8.38999939  10.01000023  48.27000046
H    16.46000099  11.18999958  48.15999985
H     5.55999994  10.01999950  50.73999786
H     6.24000025   9.06999969  49.54999924
