96

S    16.72000122  12.68000031  58.74000168
C    19.43000031  12.64999962  58.04999924
C    18.12000084  12.39999962  57.69000244
C    17.78000069  11.90999985  56.38999939
C    18.75000000  11.72999954  55.43000031
C    20.10000038  12.02999973  55.73999786
C    21.12999916  11.69999981  54.80999756
C    22.43999863  11.97000027  55.13000107
C    22.81999969  12.46999931  56.39999771
C    21.81999969  12.68000031  57.31999969
C    20.43999863  12.48999977  57.05999756
C    16.32999992  11.89000034  56.25000000
C    15.60999966  12.28000069  57.42000198
C    14.22000027  12.28999996  57.50000000
C    24.20000076  12.89000034  56.86000061
H    24.61953163  12.31403542  57.68483734
H    19.76000023  12.90999985  59.05000305
H    18.46999931  11.28999901  54.47999954
H    20.85000038  11.00999928  54.01000214
H    23.21000099  11.64999962  54.43000031
H    22.06000137  13.10999966  58.29000092
H    13.75000000  12.56000042  58.43999863
H    24.89000130  12.79999924  56.00999832
H    24.18000031  13.93000031  57.18999863
S    13.07999992  10.72999954  54.06000137
C    10.34000015  10.77000046  54.68999863
C    11.64000034  11.07999992  55.01999664
C    11.97999954  11.80999947  56.19999695
C    10.95999908  12.28000069  57.01000214
C     9.67000008  11.73999977  56.79999924
C     8.69999981  11.85999966  57.84000015
C     7.40999985  11.43000031  57.64999771
C     7.00999975  10.82999992  56.42000198
C     7.96000004  10.53999996  55.47000122
C     9.28999996  11.00999928  55.61999893
C    13.42000008  11.87999916  56.43000031
C    14.14000034  11.46000004  55.28999710
C    15.52999973  11.40999985  55.20999908
C     5.59999990  10.36000061  56.16000366
H     5.07367706  10.93611050  55.39896393
H    10.13000011  10.08999920  53.87000275
H    11.13000011  12.81000042  57.94000244
H     8.93999958  12.35999966  58.77999878
H     6.74000025  11.59000015  58.48999786
H     7.75000000  10.00000000  54.54999924
H    15.98000050  11.03000069  54.29999924
H     5.03000021  10.34999943  57.09000015
H     5.71000004   9.31999969  55.83000183
S    17.05000114  12.84999943  52.74000168
C    19.77000046  12.94999981  52.06999969
C    18.47999954  12.64000034  51.70999908
C    18.19000053  12.10999966  50.40999985
C    19.25000000  11.94000053  49.54000092
C    20.59000015  12.23000050  49.88999939
C    21.68999863  12.30000019  49.00000000
C    22.93000031  12.77999973  49.36000061
C    23.16999817  13.28999996  50.65999985
C    22.13999939  13.26000023  51.58000183
C    20.88000107  12.71000004  51.22000122
C    16.75000000  12.11999989  50.19000244
C    16.02000046  12.44999981  51.36000061
C    14.63000107  12.48999977  51.39999771
C    24.54999924  13.73000050  51.06999969
H    25.01163483  12.92746735  51.64526749
H    19.88999939  13.60999966  52.91999817
H    19.04000092  11.84999943  48.47999954
H    21.42000008  12.05000019  47.97999954
H    23.78000069  12.89999962  48.68000031
H    22.20999908  13.56999969  52.62000275
H    14.14000034  12.61999989  52.36000061
H    25.10999870  13.96000004  50.15999603
H    24.37999916  14.63000107  51.68000031
S    13.57999992  11.40999985  47.77000046
C    10.86999989  11.17000008  48.43000031
C    12.13000107  11.61000061  48.76999664
C    12.50000000  12.03999996  50.08999634
C    11.51999950  12.15000057  51.04999924
C    10.15999985  11.97000027  50.70000076
C     9.09000015  12.07999992  51.63000107
C     7.78999996  11.84000015  51.25000000
C     7.50000000  11.23999977  50.00000000
C     8.53999996  10.97000027  49.13999939
C     9.86999989  11.39999962  49.40999985
C    13.94000053  12.20999908  50.21999741
C    14.68999958  11.84999943  49.08000183
C    16.07999992  11.79999924  49.01000214
C     6.07999992  10.77999973  49.77000427
H     5.68743992  11.17969704  48.83499527
H    10.72000027  10.55999947  47.54000092
H    11.71000004  12.48000050  52.06999969
H     9.30000019  12.28999996  52.67000198
H     7.00999975  11.79999924  52.01000214
H     8.28999996  10.48999977  48.20000076
H    16.61999893  11.56000042  48.09999847
H     5.46999979  10.95999908  50.66999817
H     6.09000015   9.68999958  49.61000061
