96

S    16.76000023  12.43000031  59.27000046
C    19.50000000  12.61000061  58.59000397
C    18.22000122  12.20999908  58.27999878
C    17.88999939  11.87000084  56.93000031
C    18.82999992  11.84999943  55.91999817
C    20.17000008  12.23000050  56.19999695
C    21.21999931  12.18999958  55.24000168
C    22.47999954  12.48999977  55.70000076
C    22.79999924  12.82999992  57.04000092
C    21.78999901  12.94999981  57.97000122
C    20.48000145  12.56999969  57.56999969
C    16.45000076  11.69000053  56.77000046
C    15.67999935  12.02999973  57.90999985
C    14.29999924  12.09000015  57.90999985
C    24.26000214  12.88000011  57.41000366
H    24.58889580  12.41525650  58.33948898
H    19.80999947  12.97999954  59.55999756
H    18.60000038  11.56999969  54.89999771
H    20.98999977  12.02000046  54.20000076
H    23.34000015  12.41000080  55.02999878
H    22.09000015  13.26000023  58.95999908
H    13.73999977  12.30000019  58.81999969
H    24.86999893  12.38000011  56.63999939
H    24.54999924  13.94000053  57.34000397
S    13.31999969  11.00999928  54.23999786
C    10.54999924  10.95000076  54.72000122
C    11.80999947  11.30000019  55.13000107
C    12.15999985  11.64000034  56.47999573
C    11.07999992  11.77999973  57.34000397
C     9.75000000  11.56999969  56.90999985
C     8.63000011  11.54000092  57.78999710
C     7.32999992  11.25000000  57.43999863
C     7.04999971  10.77999973  56.12999725
C     8.11999989  10.65999985  55.27000046
C     9.44000053  11.07999992  55.59000015
C    13.59000015  11.71000004  56.76000214
C    14.35999966  11.44999981  55.59999847
C    15.75000000  11.32999992  55.61000061
C     5.66999960  10.40999985  55.65000153
H     5.29277277  11.05057430  54.85284042
H    10.50000000  10.43000031  53.75999832
H    11.26000023  11.98999977  58.39000320
H     8.93000031  11.90000057  58.76999664
H     6.53999996  11.51999950  58.13999939
H     7.82000017  10.39999962  54.26000214
H    16.23999977  11.14999962  54.65999985
H     4.94999981  10.36000061  56.47999573
H     5.82999992   9.42000008  55.20999908
S    17.26000023  13.14000034  52.74000168
C    19.95000076  13.36999989  51.93000031
C    18.65999985  12.98999977  51.65999985
C    18.38000107  12.38999939  50.38999939
C    19.40000153  12.15999985  49.47999954
C    20.72999954  12.51000023  49.79999924
C    21.83000183  12.32999992  48.92000198
C    23.11000061  12.71999931  49.25000000
C    23.34000015  13.35999966  50.48999786
C    22.34000015  13.67000008  51.37000275
C    21.04000092  13.19000053  51.04000092
C    16.95000076  12.23000050  50.17000198
C    16.28000069  12.60000038  51.36000061
C    14.88999939  12.53999901  51.42000198
C    24.77000046  13.50999928  50.94999695
H    24.95476913  12.90595150  51.83830261
H    20.20000076  13.90999985  52.84000015
H    19.20999908  11.87000084  48.44999695
H    21.63000107  12.03999996  47.88999939
H    23.81999969  12.56999969  48.43999863
H    22.50999832  14.21000004  52.29999924
H    14.32000065  12.61999989  52.34000397
H    25.36999893  13.22999954  50.07999802
H    24.87999916  14.56999969  51.22000122
S    13.76000023  11.82999992  47.69000244
C    11.00000000  11.69000053  48.34999847
C    12.30999947  11.87999916  48.70999908
C    12.68000031  12.07999992  50.07999802
C    11.69999981  12.05000019  51.04999924
C    10.34999943  11.87999916  50.70000076
C     9.32999992  12.01000023  51.68000031
C     8.01000023  11.82000065  51.33999634
C     7.63999987  11.54999924  49.99000168
C     8.59000015  11.49000072  49.00000000
C     9.96000004  11.72000027  49.31999969
C    14.11999893  12.17000008  50.31999969
C    14.81999969  11.97000027  49.10999680
C    16.21000099  11.97999954  49.01000214
C     6.17999983  11.23999977  49.79000092
H     5.86792612  11.74357414  48.87505722
H    10.72000027  11.35000038  47.36000061
H    12.01000023  12.06999969  52.09999847
H     9.59000015  12.20999908  52.71999741
H     7.26000023  11.80999947  52.11999893
H     8.30999947  11.17000008  48.00000000
H    16.56999969  11.82000065  48.00000000
H     5.64000034  11.49000072  50.70999908
H     5.97000027  10.19000053  49.55999756
