96

S    16.79999924  12.20000076  58.79000092
C    19.44000053  12.53000069  58.09999847
C    18.18000031  12.18000031  57.67000198
C    17.82999992  11.75000000  56.35000229
C    18.85000038  11.72999954  55.40999985
C    20.17000008  12.11999989  55.72999954
C    21.25000000  11.94000053  54.81999969
C    22.53000069  12.36999989  55.06999969
C    22.78000069  12.79999924  56.39999771
C    21.78999901  12.86000061  57.35000229
C    20.42000008  12.56000042  57.08000183
C    16.38000107  11.65999985  56.25000000
C    15.67000008  11.84999943  57.47000122
C    14.27999973  11.84999943  57.54000092
C    24.21999931  13.14000034  56.72999954
H    24.55600929  12.43223763  57.48780441
H    19.62000084  12.86999893  59.10999680
H    18.57999992  11.21000099  54.50000000
H    21.11999893  11.21999931  54.02000046
H    23.43000031  12.15999985  54.50000000
H    22.11000061  13.32999992  58.27999878
H    13.73000050  11.76000023  58.47000122
H    24.82000160  13.21000004  55.81999969
H    24.01000023  14.13000011  57.15999985
S    13.04999924  11.31999969  53.85000229
C    10.40999985  10.93000031  54.54000092
C    11.67000008  11.30000019  54.95999908
C    12.10000038  11.51999950  56.31000137
C    11.18000031  11.52999973  57.34000397
C     9.85000038  11.19999981  57.01000214
C     8.80999947  11.23000050  57.97999954
C     7.49000025  11.21000099  57.61000061
C     7.14999962  11.00999928  56.24000168
C     8.13000011  10.78999996  55.30000305
C     9.50000000  11.00000000  55.63000107
C    13.53000069  11.77999973  56.36000061
C    14.22999954  11.59000015  55.14999771
C    15.62000084  11.52999973  55.08999634
C     5.73000002  10.65000057  55.89000320
H     5.24794912  11.16749573  55.06058884
H    10.22999954  10.82999992  53.47000122
H    11.39000034  11.79999924  58.36999893
H     9.03999996  11.51999950  59.00000000
H     6.71999979  11.14999962  58.37999725
H     7.85000038  10.60999966  54.26000214
H    15.95000076  11.43000031  54.05000305
H     5.01999950  10.73999977  56.72000122
H     5.66999960   9.59000015  55.63000107
S    17.69000053  13.22999954  52.60000229
C    20.36999893  12.93000031  51.91999817
C    19.04999924  12.74000072  51.58000183
C    18.56999969  12.23000050  50.33000183
C    19.55000114  11.92999935  49.38999939
C    20.88999939  12.31999969  49.61999893
C    21.84999847  12.20000076  48.56999969
C    23.13999939  12.64999962  48.70999908
C    23.61000061  13.09000015  49.98000336
C    22.70999908  13.17999935  51.02000427
C    21.34000015  12.81000042  50.89000320
C    17.13000107  12.30999947  50.15999603
C    16.52000046  12.89000034  51.30000305
C    15.14000034  13.02000046  51.42000198
C    25.03999901  13.52000046  50.19000244
H    25.42529869  12.87783623  50.98200607
H    20.58000183  13.45999908  52.84000015
H    19.29000092  11.77000046  48.34999847
H    21.45000076  11.71000004  47.69000244
H    23.78999901  12.53000069  47.84999847
H    23.11000061  13.55999947  51.95000076
H    14.60000038  13.40000057  52.28000259
H    25.45999908  13.42000008  49.18000031
H    25.20999908  14.57999992  50.41999817
S    13.96000004  11.76000023  47.76000214
C    11.28000069  11.80999947  48.43999863
C    12.56000042  12.13000107  48.79000092
C    12.97999954  12.72999954  50.01999664
C    11.94000053  12.86999893  50.91999817
C    10.57000065  12.64000034  50.63000107
C     9.53999996  12.64000034  51.60999680
C     8.27000046  12.17000008  51.37000275
C     7.99000025  11.84000015  50.01999664
C     8.90999985  11.73999977  49.00000000
C    10.21999931  12.18999958  49.31000137
C    14.42000008  12.76000023  50.25000000
C    15.03999901  12.30999947  49.06000137
C    16.38000107  11.97000027  49.02999878
C     6.60000038  11.30000019  49.75999832
H     6.07388687  11.84744167  48.97794342
H    11.13000011  11.23000050  47.52999878
H    12.18999958  13.14000034  51.93999863
H     9.92999935  12.89999962  52.58999634
H     7.53999996  12.27000046  52.16999817
H     8.64000034  11.16000080  48.11999893
H    16.73999977  11.39999962  48.16999817
H     6.03999996  11.44999981  50.68999863
H     6.56000042  10.21000004  49.71000290
