96

S    16.42000008  12.38999939  58.92000198
C    19.17000008  12.63000011  58.33000183
C    17.89999962  12.25000000  57.95000076
C    17.54999924  11.64999962  56.70000076
C    18.56999969  11.30000019  55.83000183
C    19.88999939  11.65999985  56.18000031
C    20.88999939  11.56000042  55.17000198
C    22.17000008  11.95000076  55.47999954
C    22.53999901  12.31999969  56.79999924
C    21.57999992  12.56000042  57.75000000
C    20.20999908  12.32999992  57.41000366
C    16.11999893  11.46000004  56.51000214
C    15.34000015  11.96000004  57.57999802
C    13.94999981  12.02000046  57.54000092
C    23.97000122  12.76999950  57.04999924
H    24.48407364  12.13454819  57.77112961
H    19.37000084  13.09000015  59.29000092
H    18.35000038  11.03999996  54.79999924
H    20.66999817  11.09000015  54.22000122
H    22.95000076  11.89000034  54.72000122
H    21.88999939  12.93000031  58.72000122
H    13.35000038  12.30000019  58.40000153
H    24.50000000  12.77999973  56.09000397
H    23.97999954  13.78999901  57.44999695
S    13.05999947  10.84000015  53.86000061
C    10.31000042  10.70000076  54.40999985
C    11.59000015  11.00000000  54.84000397
C    11.84000015  11.44000053  56.18000031
C    10.72999954  11.77000046  56.93000031
C     9.40999985  11.38000011  56.59999847
C     8.30999947  11.59999943  57.48000336
C     7.05999947  11.26000023  57.02999878
C     6.84999990  10.78999996  55.70000076
C     7.88000011  10.59999943  54.79999924
C     9.19999981  10.85000038  55.27999878
C    13.27000046  11.59000015  56.38999939
C    14.06000042  11.21000099  55.27999878
C    15.44000053  11.03000069  55.35999680
C     5.46000004  10.36000061  55.30000305
H     4.92044926  11.14802742  54.77464676
H    10.14999962  10.39000034  53.39000320
H    10.81999969  12.30999947  57.87000275
H     8.43000031  12.01000023  58.47999954
H     6.28000021  11.05999947  57.76000214
H     7.76000023  10.17000008  53.81000137
H    16.03999901  10.65999985  54.54000092
H     4.80999994  10.17000008  56.16000366
H     5.55000019   9.44999981  54.71000290
S    17.10000038  12.69999981  52.84000015
C    19.80999947  12.84999943  52.19999695
C    18.53000069  12.48999977  51.81999969
C    18.19000053  12.18000031  50.45999908
C    19.19999886  12.00000000  49.54000092
C    20.52000046  12.38999939  49.87999725
C    21.67000008  12.34000015  49.05000305
C    22.95999908  12.64999962  49.43000031
C    23.22999954  13.05999947  50.76000214
C    22.18000031  13.02000046  51.63999939
C    20.84000015  12.76000023  51.24000168
C    16.76000023  11.95000076  50.35999680
C    16.00000000  12.28000069  51.51000214
C    14.63000107  12.51000023  51.49000168
C    24.56999969  13.61999989  51.20999908
H    25.00530052  12.89925575  51.90219879
H    19.96999931  13.31999969  53.16999817
H    18.96999931  11.87000084  48.47999954
H    21.54000092  12.18999958  47.97999954
H    23.78000069  12.81000042  48.75000000
H    22.32999992  13.22999954  52.70000076
H    14.09000015  12.93000031  52.34000397
H    25.13999939  13.69999981  50.27999878
H    24.40000153  14.65000057  51.56000137
S    13.68000031  11.23999977  47.83000183
C    10.93000031  11.26999950  48.34999847
C    12.20999908  11.54999924  48.76999664
C    12.51000023  11.98999977  50.10000229
C    11.47999954  12.31999969  50.96000290
C    10.14999962  12.06999969  50.56000137
C     9.02999973  12.23999977  51.42000198
C     7.73999977  11.85999966  51.13999939
C     7.49000025  11.30000019  49.85000229
C     8.52999973  11.11999989  48.96999741
C     9.86999989  11.50000000  49.26000214
C    13.94000053  12.10000038  50.34999847
C    14.68999958  11.64999962  49.22999954
C    16.07999992  11.54999924  49.20000076
C     6.12999964  10.73999977  49.50000000
H     5.50969267  11.53142548  49.07933044
H    10.64000034  10.95999908  47.35000229
H    11.65999985  12.53000069  52.01000214
H     9.26000023  12.58999920  52.42000198
H     7.04999971  11.90000057  51.97999954
H     8.45000076  10.48999977  48.08000183
H    16.61999893  11.28000069  48.29999924
H     5.72000027  10.31999969  50.41999817
H     6.34999990   9.92999935  48.79000092
