96

S    16.69999886  12.46000099  59.03999710
C    19.45999908  12.35000038  58.50999832
C    18.15999985  12.23000050  58.06999969
C    17.81999969  11.82999992  56.72999954
C    18.81000137  11.52999973  55.81999969
C    20.15999985  11.67000008  56.22000122
C    21.19999886  11.61000061  55.25000000
C    22.49000168  11.97000027  55.56999969
C    22.72999954  12.41000080  56.90000153
C    21.78999901  12.51000023  57.88999939
C    20.48000145  12.05999947  57.56999969
C    16.38000107  11.73999977  56.52999878
C    15.62000084  12.03999996  57.69000244
C    14.23999977  11.90999985  57.77999878
C    24.11000061  13.00000000  57.09999847
H    24.68642044  12.53032589  57.89702225
H    19.70000076  12.81999969  59.45999908
H    18.55999947  11.23000050  54.79999924
H    20.93000031  11.44000053  54.20999908
H    23.23999786  12.13999939  54.79999924
H    21.98999786  13.01000023  58.82999802
H    13.68000031  12.20999908  58.66000366
H    24.65999985  12.97000027  56.14999771
H    23.92999840  14.06000042  57.31999969
S    13.19000053  10.88999939  54.09000015
C    10.48999977  10.67000008  54.75999832
C    11.77000046  10.95000076  55.15999603
C    12.11999989  11.33999920  56.49000168
C    11.10999966  11.50000000  57.42000198
C     9.75000000  11.32999992  57.05999756
C     8.64000034  11.56999969  57.93000031
C     7.36000013  11.40999985  57.45999908
C     7.07999992  11.00999928  56.11999893
C     8.13000011  10.70000076  55.28999710
C     9.47000027  10.88999939  55.72000122
C    13.55000019  11.54000092  56.62000275
C    14.27000046  11.36999989  55.40999985
C    15.65999985  11.36999989  55.38999939
C     5.69000006  10.52000046  55.77000046
H     5.23460722  11.15328121  55.00863647
H    10.36999893  10.47999954  53.68999863
H    11.42000008  11.76000023  58.43000031
H     8.82999992  11.95000076  58.93000031
H     6.48000002  11.42000008  58.09000015
H     7.96000004  10.31999969  54.27999878
H    16.17000008  10.95999908  54.52000046
H     5.07000017  10.31000042  56.65000153
H     5.92000008   9.55000019  55.31000137
S    13.83999920   9.06999969  51.13999939
C    11.18000031   8.47999954  51.83000183
C    12.51999950   8.34000015  52.08000183
C    12.98999977   7.59999990  53.20999908
C    12.10000038   7.05999947  54.10999680
C    10.71000004   7.22000027  53.88000107
C     9.71000004   6.67999983  54.72999954
C     8.34000015   6.74000025  54.55999756
C     7.88999987   7.55000019  53.48999786
C     8.80999947   8.10000038  52.63000107
C    10.21999931   7.97999954  52.76000214
C    14.42999935   7.78999996  53.34000015
C    15.06000042   8.50000000  52.29999924
C    16.38000107   8.97000027  52.34000397
C     6.42000008   7.78999996  53.23999786
H     6.09851074   7.45422173  52.25409698
H    10.72999954   8.84000015  50.90999985
H    12.44999981   6.50000000  54.97000122
H    10.11000061   6.11999989  55.56999969
H     7.72000027   6.10000038  55.18000031
H     8.47000027   8.53999996  51.70000076
H    16.81999969   9.55000019  51.53999710
H     5.75000000   7.46999979  54.05000305
H     6.32000017   8.88000011  53.22000122
S    17.67000008   7.13999987  55.63000107
C    20.35000038   7.50999975  55.12000275
C    19.05999947   7.88999987  54.80999756
C    18.61999893   8.55000019  53.61999893
C    19.63000107   8.98999977  52.77999878
C    20.98999977   8.78000069  53.09000015
C    22.10000038   9.21000004  52.29999924
C    23.42000008   9.11999989  52.65999603
C    23.74000168   8.40999985  53.85000229
C    22.72999954   7.83999968  54.59000015
C    21.35000038   8.05999947  54.27999878
C    17.18000031   8.53999996  53.40000153
C    16.54000092   7.88000011  54.47999954
C    15.19000053   7.53999996  54.48999786
C    25.15999985   8.27999973  54.34000015
H    25.42347527   9.09891415  55.00937271
H    20.51000214   6.76999998  55.90000153
H    19.30999947   9.50000000  51.88000107
H    21.84000015   9.82999992  51.45000076
H    24.10000038   9.72000027  52.05999756
H    22.86000061   7.28999996  55.52000046
H    14.78999996   7.05999947  55.38000107
H    25.76000023   8.47999954  53.43999863
H    25.38000107   7.27999973  54.73999786
