96

S    16.43000031  12.61000061  58.60000229
C    19.11999893  12.58999920  57.97999954
C    17.85000038  12.18000031  57.63999939
C    17.47999954  11.64999962  56.36000061
C    18.45999908  11.57999992  55.38999939
C    19.78000069  11.94000053  55.72999954
C    20.81999969  11.68000031  54.79000092
C    22.13000107  11.84000015  55.18000031
C    22.47999954  12.39999962  56.44000244
C    21.51000023  12.71999931  57.36000061
C    20.15000153  12.50000000  57.00000000
C    16.05999947  11.38000011  56.20999908
C    15.39000034  11.96000004  57.31999969
C    14.01000023  12.13999939  57.29000092
C    23.94000053  12.68000031  56.72000122
H    24.32464790  12.19562721  57.61751556
H    19.34000015  12.79999924  59.02000046
H    18.30000114  10.92000008  54.54000092
H    20.55999947  11.39000034  53.76999664
H    22.92000008  11.54999924  54.50000000
H    21.76000214  13.07999992  58.34999847
H    13.53000069  12.76999950  58.04000092
H    24.61999893  12.34000015  55.93999863
H    24.05999947  13.73000050  57.00000000
S    12.93000031  10.80999947  53.69999695
C    10.21000004  10.69000053  54.40000153
C    11.49000072  11.06999969  54.71000290
C    11.84999943  11.68000031  55.96000290
C    10.81999969  11.98999977  56.83000183
C     9.51000023  11.49000072  56.65999985
C     8.47999954  11.77999973  57.60000229
C     7.18999958  11.46999931  57.25000000
C     6.84000015  10.85999966  56.02000427
C     7.86000013  10.47000027  55.18000031
C     9.21000004  10.85999966  55.38999939
C    13.28999996  11.73999977  56.16000366
C    14.00000000  11.19999981  55.06000137
C    15.36000061  10.92000008  55.08999634
C     5.40999985  10.59999943  55.61000061
H     4.94787502  11.25408459  54.87059784
H    10.06000042  10.39000034  53.36999893
H    11.02000046  12.44999981  57.78999710
H     8.71999931  12.27000046  58.54000092
H     6.44000006  11.82000065  57.95999908
H     7.69999981   9.98000050  54.22999954
H    15.88999939  10.64000034  54.18000031
H     4.86999989  10.85999966  56.52000046
H     5.27999973   9.52999973  55.40000153
S    13.63999939   8.69000053  50.83000183
C    10.95999908   8.06999969  51.43000031
C    12.28999996   8.09000015  51.81000137
C    12.79000092   7.57000017  53.04000092
C    11.89000034   7.03999996  53.95000076
C    10.50000000   7.09000015  53.66000366
C     9.56999969   6.60000038  54.61000061
C     8.22000027   6.71999979  54.36999893
C     7.73999977   7.23999977  53.13999939
C     8.64000034   7.55000019  52.15000153
C    10.03999901   7.53000021  52.36999893
C    14.22999954   7.72000027  53.22999954
C    14.80000019   8.43000031  52.14000320
C    16.18000031   8.63000011  52.08000183
C     6.25999975   7.44000006  52.90000153
H     5.86138630   6.56447363  52.38749695
H    10.67999935   8.57999992  50.52000046
H    12.15000057   6.47000027  54.82999802
H     9.84000015   6.21000004  55.59000015
H     7.57999992   6.51000023  55.22999573
H     8.19999981   7.97999954  51.25000000
H    16.65999985   9.22000027  51.31000137
H     5.71000004   7.63999987  53.82999802
H     6.21999979   8.32999992  52.25999832
S    17.51000023   7.13000011  55.56999969
C    20.19000053   7.34000015  54.86000061
C    18.86999893   7.55000019  54.52000046
C    18.38000107   8.18000031  53.34000015
C    19.32999992   8.76000023  52.51999664
C    20.71000099   8.64000034  52.80000305
C    21.73000145   9.19999981  51.97999954
C    23.05999947   9.01000023  52.29000092
C    23.48999977   8.27999973  53.43000031
C    22.52000046   7.60999966  54.13999939
C    21.12999916   7.82999992  53.90999603
C    16.93000031   8.19999981  53.18000031
C    16.34000015   7.57999992  54.31000137
C    15.00000000   7.22000027  54.29000092
C    24.93000031   7.88999987  53.64999771
H    25.32115364   8.52295589  54.44652939
H    20.52000046   6.74000025  55.70000076
H    18.96999931   9.40999985  51.72999954
H    21.40999985   9.80000019  51.12999725
H    23.75000000   9.44000053  51.56999969
H    22.82999992   7.09999990  55.05000305
H    14.60999966   6.58999968  55.08999634
H    25.53999901   7.79999971  52.74000168
H    24.94999886   6.86999989  54.03999710
