96

S    16.57999992  11.77000046  58.97999573
C    19.17000008  12.10999966  58.13999939
C    17.89999962  11.71000004  57.80000305
C    17.53999901  11.26999950  56.49000168
C    18.54999924  11.25000000  55.54999924
C    19.88999939  11.57999992  55.87999725
C    20.93000031  11.51999950  54.91000366
C    22.20999908  11.79999924  55.33000183
C    22.52000046  12.38999939  56.58000183
C    21.55999947  12.38000011  57.56000137
C    20.22000122  12.05000019  57.19999695
C    16.09000015  11.33999920  56.36000061
C    15.47000027  11.44999981  57.63000107
C    14.09000015  11.59999943  57.68000031
C    23.97000122  12.71000004  56.90000153
H    24.43975639  12.06230736  57.64022064
H    19.40000153  12.38000011  59.16999817
H    18.38999939  11.23999977  54.47000122
H    20.62000084  11.26999950  53.89999771
H    22.98999977  11.59000015  54.61000061
H    21.67000008  12.69000053  58.60000229
H    13.52000046  11.61999893  58.61000061
H    24.56999969  12.56000042  56.00000000
H    24.09000015  13.76000023  57.21000290
S    12.84000015  11.30000019  53.93000031
C    10.21000004  10.76000023  54.66999817
C    11.46000004  11.18000031  55.04000092
C    11.82999992  11.47999954  56.38999939
C    10.81999969  11.49000072  57.32999802
C     9.51000023  11.06999969  56.97999954
C     8.55000019  10.98000050  58.02999878
C     7.28999996  10.52000046  57.74000168
C     6.94000006  10.08999920  56.44000244
C     7.88999987  10.08999920  55.44000244
C     9.19000053  10.60999966  55.65000153
C    13.27000046  11.54000092  56.55000305
C    13.94999981  11.46999931  55.30000305
C    15.32999992  11.32999992  55.18000031
C     5.53999996   9.59999943  56.12999725
H     4.97934055  10.29550171  55.50546646
H     9.98000050  10.65000057  53.61000061
H    11.07999992  11.72999954  58.36000061
H     8.92000008  11.33999920  58.97999573
H     6.57999992  10.48999977  58.56999969
H     7.63999987   9.59999943  54.50000000
H    15.80999947  11.00999928  54.26000214
H     5.00000000   9.59000015  57.08000183
H     5.61999989   8.57999992  55.73999786
S    13.42000008   8.89999962  50.94999695
C    10.73999977   8.51000023  51.56000137
C    12.05000019   8.19000053  51.81999969
C    12.46999931   7.50000000  53.01000214
C    11.50000000   6.94000006  53.81999969
C    10.13000011   7.16000032  53.54000092
C     9.11999989   6.67999983  54.41999817
C     7.78999996   6.81999969  54.13000107
C     7.36999989   7.59999990  53.02000046
C     8.34999943   8.19000053  52.25000000
C     9.73999977   8.00000000  52.43000031
C    13.88000011   7.65999985  53.31999969
C    14.47999954   8.43000031  52.29000092
C    15.82999992   8.76000023  52.32999802
C     5.91000032   7.96999979  52.88999939
H     5.42525434   7.49951172  52.03456879
H    10.47000027   9.13000011  50.70999908
H    11.64999962   6.25000000  54.64000320
H     9.52000046   6.14000034  55.27999878
H     7.02000046   6.57999992  54.86000061
H     8.00000000   8.93000031  51.52999878
H    16.31000137   9.52000046  51.70999908
H     5.29999971   7.73999977  53.76999664
H     5.89999962   9.06000042  52.77000046
S    17.20999908   6.65000010  55.50000000
C    19.81999969   7.44999981  54.97000122
C    18.48999977   7.50999975  54.61999893
C    17.98999977   8.27999973  53.52000427
C    18.88000107   8.97000027  52.71999741
C    20.26000023   8.85000038  53.04000092
C    21.19999886   9.55000019  52.22999954
C    22.55000114   9.47000027  52.47000122
C    23.05999947   8.59000015  53.46000290
C    22.18000031   7.96000004  54.29999924
C    20.78000069   8.11999989  54.15999985
C    16.55999947   8.10000038  53.33000183
C    16.02000046   7.23000002  54.31999969
C    14.65000057   7.03999996  54.31999969
C    24.54000092   8.30000019  53.60000229
H    24.88866997   8.51347160  54.61042786
H    20.26000023   6.84000015  55.75000000
H    18.53999901   9.46000004  51.81000137
H    20.86999893   9.98000050  51.29000092
H    23.19999886  10.01000023  51.79999924
H    22.56000137   7.30000019  55.07999802
H    14.09000015   6.38000011  54.97000122
H    25.13999939   8.80999947  52.83000183
H    24.82000160   7.23999977  53.48999786
