96

S    16.97999954  12.81999969  58.81999969
C    19.69000053  13.04999924  58.08000183
C    18.40999985  12.65999985  57.77000046
C    18.17000008  11.94000053  56.55000305
C    19.25000000  11.68000031  55.72999954
C    20.58000183  12.06999969  55.98999786
C    21.70999908  11.72000027  55.18000031
C    22.93999863  12.18000031  55.56999969
C    23.19999886  12.86000061  56.79000092
C    22.09000015  13.22000027  57.52999878
C    20.76999855  12.79000092  57.21000290
C    16.72999954  11.72999954  56.43000031
C    15.95999908  12.13999939  57.54000092
C    14.56999969  12.18000031  57.55000305
C    24.61000061  13.27000046  57.12999725
H    25.00732803  12.63853264  57.92465591
H    19.88999939  13.55999947  59.02000046
H    19.01000023  11.03000069  54.89999771
H    21.51000023  11.35000038  54.18000031
H    23.78999901  12.00000000  54.92000198
H    22.10000038  13.94000053  58.34000015
H    14.09999943  12.58999920  58.43999863
H    25.19000053  13.27999973  56.18999863
H    24.57999992  14.30999947  57.48000336
S    13.53000069  10.67000008  54.05000305
C    10.77000046  10.77000046  54.59000015
C    12.05999947  11.05999947  54.97000122
C    12.38000011  11.64999962  56.24000168
C    11.36000061  12.03999996  57.08000183
C    10.01000023  11.80999947  56.72000122
C     8.93000031  12.01000023  57.62000275
C     7.63000011  11.73999977  57.22999954
C     7.36000013  11.25000000  55.93000031
C     8.36999989  11.10999966  55.01999664
C     9.72999954  11.28000069  55.40999985
C    13.81000042  11.68000031  56.47999573
C    14.56999969  11.23999977  55.37000275
C    15.95000076  11.07999992  55.45999908
C     5.98000002  10.70000076  55.63000107
H     5.35455322  11.41073513  55.08983994
H    10.59999943  10.22999954  53.66000366
H    11.65999985  12.38000011  58.06999969
H     9.11999989  12.39999962  58.61999893
H     6.88000011  11.84000015  58.01000214
H     8.23999977  10.55999947  54.09000015
H    16.45000076  10.51000023  54.68999863
H     5.52999973  10.43000031  56.59000015
H     6.00000000   9.73999977  55.11000061
S    13.43999958   8.90999985  50.90000153
C    10.75000000   8.43999958  51.46999741
C    12.06999969   8.22000027  51.79000092
C    12.55000019   7.55000019  52.95999908
C    11.61000061   6.94000006  53.76999664
C    10.25000000   7.22000027  53.50999832
C     9.30000019   6.96000004  54.54000092
C     7.97999954   7.30999994  54.31999969
C     7.49000025   7.86000013  53.11000061
C     8.38999939   8.11999989  52.09999847
C     9.77000046   7.88000011  52.32999802
C    13.97999954   7.69999981  53.20000076
C    14.59000015   8.43999958  52.15999985
C    15.90999985   8.86999989  52.25000000
C     6.05999994   8.27999973  52.87000275
H     5.61807489   7.78105164  52.00753403
H    10.44000053   9.11999989  50.68000031
H    11.82999992   6.56000042  54.77000427
H     9.59000015   6.46000004  55.45999908
H     7.28999996   7.17000008  55.13999939
H     8.10999966   8.73000050  51.24000168
H    16.38000107   9.39999962  51.43000031
H     5.49000025   8.10999966  53.79000092
H     6.07999992   9.35999966  52.70999908
S    17.32999992   7.26999998  55.54999924
C    19.97999954   7.88000011  54.85000229
C    18.63000107   7.96999979  54.55999756
C    18.19000053   8.43000031  53.27999878
C    19.10000038   8.84000015  52.32999802
C    20.45999908   8.96000004  52.72999573
C    21.42999840   9.47000027  51.83000183
C    22.77000046   9.48000050  52.14000320
C    23.22000122   8.97999954  53.39000320
C    22.32999992   8.45000076  54.29999924
C    20.94000053   8.47000027  54.00000000
C    16.75000000   8.27000046  53.20999908
C    16.11999893   7.60999966  54.29000092
C    14.77000046   7.30000019  54.29000092
C    24.70000076   8.80000019  53.60000229
H    25.02732086   8.92808151  54.63177490
H    20.27000046   7.42000008  55.79000092
H    18.72999954   9.15000057  51.36000061
H    21.11000061   9.63000011  50.79999924
H    23.47999954   9.72000027  51.35000229
H    22.70000076   7.82999992  55.11000061
H    14.27999973   6.76000023  55.08999634
H    25.13999939   9.63000011  53.02999878
H    24.93999863   7.81000042  53.18999863
