96

S    16.61999893  12.32999992  58.68999863
C    19.29999924  12.43999958  58.06999969
C    18.02999878  12.10000038  57.64999771
C    17.61999893  11.72000027  56.32999802
C    18.56999969  11.56999969  55.34999847
C    19.92000008  11.84000015  55.68000031
C    20.95999908  11.61000061  54.72999954
C    22.27000046  11.92999935  54.98000336
C    22.60000038  12.46999931  56.25999832
C    21.59000015  12.68000031  57.16999817
C    20.22000122  12.32999992  57.00000000
C    16.18000031  11.46000004  56.25000000
C    15.47999954  11.82999992  57.42000198
C    14.09999943  11.96000004  57.51999664
C    24.04000092  12.77999973  56.59000015
H    24.46748734  12.08176994  57.30960464
H    19.55000114  12.76999950  59.08000183
H    18.25000000  11.32999992  54.34000015
H    20.63999939  11.07999992  53.82999802
H    23.02999878  11.78999996  54.20999908
H    21.80999947  13.14000034  58.11999893
H    13.63999939  12.15999985  58.47999954
H    24.72999954  12.89999962  55.75000000
H    24.04999924  13.76999950  57.08000183
S    12.97000027  10.95000076  53.81999969
C    10.24000072  11.05000019  54.38999939
C    11.54000092  11.19999981  54.84000397
C    11.90000057  11.56999969  56.17000198
C    10.90999985  11.90000057  57.06999969
C     9.57999992  11.54999924  56.73999786
C     8.52999973  11.51000023  57.69000244
C     7.35000038  10.85000038  57.43999863
C     7.00999975  10.57999992  56.09000397
C     7.90000010  10.84000015  55.06999969
C     9.25000000  11.17000008  55.38999939
C    13.34000015  11.59999943  56.39999771
C    14.02999973  11.23000050  55.21999741
C    15.40999985  11.23000050  55.10000229
C     5.63000011  10.06999969  55.72000122
H     5.28091526  10.72542381  54.92209244
H    10.00000000  10.69000053  53.39000320
H    11.06999969  12.15000057  58.11999893
H     8.80999947  11.90999985  58.66000366
H     6.67999983  10.65000057  58.27000046
H     7.63000011  10.62000084  54.03999710
H    15.92000008  11.18999958  54.13999939
H     4.98000002   9.94999981  56.59000015
H     5.82000017   9.09000015  55.26000214
S    16.27000046  13.21000004  52.63000107
C    18.98999977  12.71999931  52.16999817
C    17.69000053  12.64000034  51.72000122
C    17.39999962  12.03999996  50.45999908
C    18.39999962  11.61999893  49.59999847
C    19.75000000  11.84000015  49.97000122
C    20.84000015  11.77000046  49.06000137
C    22.11999893  12.17000008  49.31999969
C    22.39000130  12.56999969  50.65999985
C    21.38000107  12.61999989  51.59000015
C    20.03000069  12.28000069  51.31999969
C    15.95999908  12.09000015  50.24000168
C    15.21999931  12.69999981  51.29000092
C    13.82999992  12.68000031  51.29000092
C    23.69999886  13.25000000  50.98999786
H    24.42733383  12.61536503  51.49628067
H    19.22999954  13.25000000  53.09000015
H    18.12000084  11.44000053  48.56999969
H    20.53999901  11.49000072  48.04999924
H    22.81999969  12.25000000  48.50000000
H    21.55999947  13.15999985  52.51999664
H    13.31999969  13.12000084  52.12999725
H    24.04999924  13.53999996  49.99000168
H    23.47999954  14.11000061  51.63999939
S    12.77999973  11.03000069  47.84000015
C    10.03999901  10.98999977  48.41999817
C    11.31999969  11.33999920  48.79000092
C    11.65999985  11.96000004  50.04000092
C    10.59999943  12.13999939  50.90000153
C     9.26000023  11.80999947  50.61000061
C     8.19000053  11.95000076  51.55000305
C     6.89000034  11.87000084  51.11000061
C     6.57999992  11.36999989  49.81999969
C     7.60999966  11.06999969  48.95999908
C     8.97000027  11.33999920  49.27999878
C    13.09000015  12.13000107  50.24000168
C    13.82999992  11.65999985  49.12000275
C    15.21999931  11.61999893  49.15000153
C     5.13000011  11.39000034  49.38000107
H     5.07282925  11.81878090  48.37951279
H     9.76000023  10.52999973  47.47000122
H    10.69000053  12.65999985  51.84999847
H     8.39999962  12.35000038  52.54000092
H     6.11999989  12.31999969  51.72000122
H     7.49000025  10.55999947  48.01000214
H    15.77000046  11.13999939  48.34999847
H     4.61000013  12.00000000  50.13000107
H     4.76999998  10.36000061  49.34999847
