96

S    16.69999886  12.34000015  59.09000015
C    19.37000084  12.76000023  58.30999756
C    18.12000084  12.27000046  58.02999878
C    17.77000046  11.71000004  56.75000000
C    18.77000046  11.65999985  55.80999756
C    20.10999870  12.05000019  56.06999969
C    21.22999954  11.90999985  55.20000076
C    22.46999931  12.38999939  55.54000092
C    22.72000122  12.94999981  56.81999969
C    21.70000076  13.07000065  57.74000168
C    20.39999962  12.63000011  57.35000229
C    16.31999969  11.64000034  56.56999969
C    15.59999943  12.05000019  57.71999741
C    14.22000027  12.01000023  57.84000015
C    24.11000061  13.25000000  57.31999969
H    24.62184906  12.43957233  57.83895874
H    19.51000023  13.22999954  59.29000092
H    18.59000015  11.33999920  54.78000259
H    21.09000015  11.35000038  54.27999878
H    23.31999969  12.22000027  54.87999725
H    21.84000015  13.50000000  58.72000122
H    13.68999958  12.10999966  58.79000092
H    24.69000053  13.40000057  56.38999939
H    24.23000145  14.15999985  57.91999817
S    13.21000004  10.95000076  54.08000183
C    10.48999977  10.90999985  54.71000290
C    11.77999973  11.18999958  55.10000229
C    12.13999939  11.68000031  56.39999771
C    11.11999989  11.82000065  57.31999969
C     9.77999973  11.46999931  57.00000000
C     8.80000019  11.38000011  58.02000046
C     7.50999975  11.00000000  57.72999573
C     7.13999987  10.67000008  56.39999771
C     8.09000015  10.71000004  55.40999985
C     9.46000004  11.03000069  55.66999817
C    13.56999969  11.69999981  56.63999939
C    14.26000023  11.36999989  55.44000244
C    15.65000057  11.23000050  55.40999985
C     5.69000006  10.39000034  56.05999756
H     5.28271055  11.02594376  55.27400208
H    10.29999924  10.34000015  53.81000137
H    11.38000011  11.92000008  58.36999893
H     8.96000004  11.84999943  58.99000168
H     6.80999994  11.06999969  58.54999924
H     7.88000011  10.29999924  54.41999817
H    16.05999947  10.67000008  54.58000183
H     5.10999966  10.59000015  56.97000122
H     5.63000011   9.30999947  55.84999847
S    13.31999969   8.75000000  51.00000000
C    10.59000015   8.27000046  51.51000214
C    11.90000057   8.15999985  51.88999939
C    12.28999996   7.48000050  53.09000015
C    11.32999992   6.94999981  53.93000031
C     9.96000004   7.04999971  53.57999802
C     8.92000008   6.71000004  54.48999786
C     7.63000011   7.11999989  54.26000214
C     7.26999998   7.68000031  53.00000000
C     8.22000027   7.85000038  52.02999878
C     9.59999943   7.67000008  52.34000397
C    13.73000050   7.46999979  53.31999969
C    14.40000057   8.17000008  52.29000092
C    15.73999977   8.53999996  52.42000198
C     5.82999992   7.99000025  52.63999939
H     5.39509058   7.31981134  51.89851379
H    10.34000015   8.84000015  50.61999893
H    11.54000092   6.52999973  54.91000366
H     9.02999973   6.23000050  55.45999908
H     7.00999975   7.11000013  55.14999771
H     8.01000023   8.23999977  51.03000259
H    16.17000008   9.23999977  51.70999908
H     5.13999987   7.94000053  53.50000000
H     5.78999996   9.04999924  52.35000229
S    16.87999916   6.88000011  55.81999969
C    19.56999969   7.57000017  55.41999817
C    18.26000023   7.63999987  55.00999832
C    17.85000038   8.34000015  53.82999802
C    18.81000137   9.01000023  53.08000183
C    20.17000008   8.82999992  53.39000320
C    21.18000031   9.28999996  52.49000168
C    22.50999832   9.09000015  52.81999969
C    22.89999962   8.40999985  54.00000000
C    21.94999886   7.94000053  54.86999893
C    20.56999969   8.14999962  54.59000015
C    16.45000076   8.06999969  53.53000259
C    15.77000046   7.30000019  54.50000000
C    14.44000053   6.90999985  54.38999939
C    24.37000084   8.10999966  54.22999954
H    24.75290298   8.49999332  55.17307663
H    19.82999992   6.96000004  56.27999878
H    18.60000038   9.40999985  52.09000015
H    20.86999893   9.68999958  51.52999878
H    23.29999924   9.47000027  52.18000031
H    22.23999977   7.42000008  55.77999878
H    14.01999950   6.21000004  55.10000229
H    24.86000061   8.64999962  53.41999817
H    24.56000137   7.03999996  54.06999969
