96

S    16.28000069  12.43999958  58.75000000
C    18.96999931  12.23000050  58.31999969
C    17.71999931  11.84999943  57.90000153
C    17.43999863  11.26000023  56.62000275
C    18.46999931  11.05999947  55.72000122
C    19.75000000  11.56999969  56.04999924
C    20.79999924  11.50000000  55.08999634
C    22.04999924  11.92000008  55.47999954
C    22.29000092  12.55000019  56.73999786
C    21.28000069  12.65999985  57.65999603
C    20.00000000  12.13000107  57.35000229
C    16.02000046  11.42000008  56.35000229
C    15.26999950  12.13000107  57.31999969
C    13.89000034  12.25999928  57.31999969
C    23.69999886  12.89000034  57.18000031
H    24.23303795  12.07977962  57.67750549
H    19.11999893  12.82999992  59.20999908
H    18.15999985  10.75000000  54.72999954
H    20.66999817  11.10000038  54.09000015
H    22.90999985  11.57999992  54.92000198
H    21.45000076  13.07999992  58.64999771
H    13.28999996  12.48000050  58.20000076
H    24.31999969  13.14000034  56.31000137
H    23.65999985  13.83999920  57.72999573
S    12.81000042  10.47999954  53.97999573
C    10.08999920  10.40999985  54.75999832
C    11.39000034  10.76000023  55.00999832
C    11.73999977  11.54999924  56.16000366
C    10.75000000  11.84999943  57.08000183
C     9.39999962  11.47999954  56.88999939
C     8.31999969  11.68000031  57.78999710
C     7.00999975  11.46999931  57.43000031
C     6.67000008  10.85999966  56.18999863
C     7.72000027  10.44000053  55.40999985
C     9.06999969  10.77000046  55.68000031
C    13.17000008  11.80999947  56.20999908
C    13.90999985  11.23999977  55.14999771
C    15.29000092  11.06999969  55.20000076
C     5.27999973  10.31999969  55.94999695
H     4.74048233  10.93050671  55.22591019
H     9.85000038   9.94999981  53.81000137
H    11.06999969  12.32999992  58.00000000
H     8.56000042  12.28999996  58.66000366
H     6.23000050  11.77999973  58.11999893
H     7.49000025   9.67000008  54.66999817
H    15.90999985  10.59999943  54.43999863
H     4.80999994  10.15999985  56.93000031
H     5.45000029   9.35000038  55.47000122
S    13.60000038   8.69999981  51.16000366
C    10.92000008   7.97999954  51.63999939
C    12.25000000   7.88000011  51.97000122
C    12.64000034   7.40000010  53.26000214
C    11.64000034   6.94999981  54.09000015
C    10.25000000   7.07000017  53.85000229
C     9.26000023   6.84000015  54.85000229
C     7.94000053   6.94999981  54.51000214
C     7.57999992   7.57000017  53.27999878
C     8.53999996   7.94000053  52.36000061
C     9.90999985   7.60999966  52.56000137
C    14.06999969   7.57000017  53.50999832
C    14.70999908   8.34999943  52.50000000
C    16.09000015   8.52000046  52.45999908
C     6.14000034   7.82999992  52.93000031
H     5.84703732   7.41556454  51.96536636
H    10.62999916   8.47999954  50.70999908
H    11.85999966   6.76000023  55.13999939
H     9.59000015   6.60000038  55.86000061
H     7.16000032   6.69000053  55.21999741
H     8.38999939   8.56999969  51.47999573
H    16.55999947   9.30000019  51.84999847
H     5.47999954   7.27999973  53.62999725
H     5.97000027   8.90999985  52.94000244
S    17.28000069   6.98999977  55.91999817
C    19.98999977   7.42999983  55.34999847
C    18.67000008   7.57000017  54.99000168
C    18.29000092   8.03999996  53.68999863
C    19.27000046   8.45000076  52.80000305
C    20.62999916   8.39999962  53.18999863
C    21.63000107   8.94999981  52.34000397
C    22.93000031   8.85000038  52.77999878
C    23.29000092   8.13000011  53.95000076
C    22.34999847   7.53999996  54.77000427
C    21.01000023   7.90999985  54.48999786
C    16.86000061   7.94000053  53.47000122
C    16.18000031   7.35000038  54.56999969
C    14.80999947   7.11999989  54.59999847
C    24.75000000   7.82999992  54.23999786
H    25.16960907   8.52697849  54.96542740
H    20.13999939   6.84000015  56.25000000
H    19.11000061   8.69000053  51.76000214
H    21.45999908   9.31999969  51.32999802
H    23.72999954   9.02999973  52.08000183
H    22.73999977   6.90000010  55.56000137
H    14.40999985   6.52999973  55.41999817
H    25.28000069   7.92000008  53.29000092
H    24.94999886   6.76999998  54.41999817
