96

S    16.57999992  11.97999954  58.93000031
C    19.29000092  12.38999939  58.26000214
C    18.01000023  12.06999969  57.88000107
C    17.71000099  11.72999954  56.52999878
C    18.77000046  11.63000011  55.65000153
C    20.09000015  11.97000027  56.04000092
C    21.15999985  11.84999943  55.10000229
C    22.46999931  12.03999996  55.47999954
C    22.76000023  12.48000050  56.79999924
C    21.77000046  12.56999969  57.75000000
C    20.40999985  12.35000038  57.38999939
C    16.28999901  11.39999962  56.38999939
C    15.52000046  11.75000000  57.52999878
C    14.14000034  11.84000015  57.61000061
C    24.18999863  12.81000042  57.14000320
H    24.54401588  12.18693161  57.96131897
H    19.44000053  12.71999931  59.27999878
H    18.60999870  11.28000069  54.64000320
H    20.89999962  11.54000092  54.09999847
H    23.29000092  11.94000053  54.77000427
H    22.01999855  13.01000023  58.72000122
H    13.63000011  12.01000023  58.54999924
H    24.84000015  12.65999985  56.26999664
H    24.05999947  13.86999989  57.38999939
S    13.12999916  10.57999992  53.95999908
C    10.44000053  10.34999943  54.78000259
C    11.72999954  10.77000046  55.01999664
C    12.02999973  11.28000069  56.32999802
C    11.06999969  11.56999969  57.29000092
C     9.72999954  11.25000000  56.95999908
C     8.71000004  11.44999981  57.91999817
C     7.44999981  10.95000076  57.65999603
C     7.07999992  10.46000004  56.38000107
C     8.06999969  10.21000004  55.45000076
C     9.42000008  10.55999947  55.73999786
C    13.47000027  11.46999931  56.44000244
C    14.19999981  11.05999947  55.30000305
C    15.59000015  10.95000076  55.27000046
C     5.66999960   9.98999977  56.11999893
H     5.19169807  10.48971844  55.27761459
H    10.24000072   9.88000011  53.81999969
H    11.36999989  11.84999943  58.29000092
H     9.00000000  11.89000034  58.87000275
H     6.63999987  11.14999962  58.34999847
H     7.79999971   9.92000008  54.43999863
H    16.11999893  10.65999985  54.36999893
H     5.13000011  10.10000038  57.05999756
H     5.80999947   8.92000008  55.89000320
S    17.27000046  12.97999954  52.84000015
C    19.96000099  13.02999973  52.08000183
C    18.65999985  12.69000053  51.77999878
C    18.30000114  12.17000008  50.50000000
C    19.29999924  12.09000015  49.54999924
C    20.62000084  12.51000023  49.80999756
C    21.67000008  12.30999947  48.87000275
C    22.96999931  12.69000053  49.13000107
C    23.28000069  13.30000019  50.37000275
C    22.32000160  13.43999958  51.35000229
C    20.96999931  13.07999992  51.07999802
C    16.84999847  12.07999992  50.40999985
C    16.13000107  12.46999931  51.56999969
C    14.75999928  12.69999981  51.63000107
C    24.70999908  13.57999992  50.76000214
H    25.11954498  12.78915501  51.38844299
H    20.17999840  13.56999969  52.98999786
H    19.03000069  11.67000008  48.57999802
H    21.40999985  11.77000046  47.97000122
H    23.75999832  12.42000008  48.43000031
H    22.62000084  13.85000038  52.30999756
H    14.39000034  13.07000065  52.57999802
H    25.22999954  13.75000000  49.80999756
H    24.71999931  14.55999947  51.25000000
S    13.63999939  11.32999992  48.02000046
C    11.00999928  11.16000080  48.80000305
C    12.25999928  11.68000031  49.08000183
C    12.61999989  12.09000015  50.40000153
C    11.59999943  12.25999928  51.31999969
C    10.26999950  11.87000084  51.02000427
C     9.22000027  11.90999985  51.97999954
C     7.97999954  11.40999985  51.65999985
C     7.69000006  10.72999954  50.45000076
C     8.73999977  10.53999996  49.59000015
C    10.01000023  11.13999939  49.80999756
C    14.06999969  12.20999908  50.52000046
C    14.73999977  11.77000046  49.34999847
C    16.11999893  11.64999962  49.29000092
C     6.30000019  10.31000042  50.04000092
H     5.81095219  10.95497513  49.30997467
H    10.82999992  10.69000053  47.84000015
H    11.85999966  12.58999920  52.31999969
H     9.43000031  12.20999908  53.00000000
H     7.17000008  11.51999950  52.38999939
H     8.55000019   9.98000050  48.67000198
H    16.62999916  11.28999901  48.40999985
H     5.55999994  10.18000031  50.84000015
H     6.28000021   9.30000019  49.59999847
