96

S    16.10999870  12.39999962  58.81999969
C    18.79999924  12.65999985  58.09999847
C    17.54999924  12.17000008  57.81000137
C    17.27000046  11.56000042  56.53999710
C    18.32999992  11.19999981  55.72999954
C    19.62000084  11.68000031  56.03000259
C    20.72000122  11.32999992  55.19000244
C    22.01000023  11.71000004  55.48999786
C    22.29999924  12.43999958  56.66999817
C    21.21999931  12.89000034  57.39999771
C    19.86999893  12.51000023  57.18000031
C    15.84000015  11.52999973  56.29000092
C    15.11000061  11.97000027  57.42000198
C    13.71999931  11.98999977  57.48000336
C    23.74000168  12.79000092  56.98999786
H    24.18118095  12.10688210  57.71581268
H    19.04000092  12.97000027  59.10999680
H    18.12999916  10.72999954  54.77000427
H    20.48000145  10.71000004  54.33000183
H    22.81999969  11.49000072  54.79999924
H    21.51000023  13.50999928  58.25000000
H    13.15000057  12.31999969  58.34000015
H    24.30999947  12.69999981  56.05999756
H    23.74000168  13.81999969  57.35000229
S    12.69000053  10.69000053  53.81000137
C    10.01000023  10.65999985  54.52000046
C    11.28999901  11.03000069  54.85000229
C    11.61000061  11.54999924  56.13999939
C    10.59999943  11.82999992  57.04999924
C     9.26000023  11.47999954  56.76000214
C     8.22000027  11.57999992  57.72999573
C     6.98999977  11.07999992  57.39999771
C     6.70000029  10.44000053  56.16000366
C     7.69999981  10.29999924  55.22999573
C     9.00000000  10.80999947  55.51000214
C    13.04999924  11.61000061  56.31000137
C    13.75000000  11.11999989  55.18000031
C    15.13000011  11.03999996  55.18000031
C     5.28999996  10.11000061  55.72000122
H     4.88236046  10.88952160  55.07635880
H     9.81000042  10.05000019  53.63999939
H    10.85999966  12.15999985  58.04999924
H     8.52000046  12.20999908  58.55999756
H     6.09000015  11.39999962  57.91999817
H     7.53999996  10.18000031  54.15999985
H    15.67000008  10.65999985  54.31999969
H     4.63999987   9.90999985  56.59000015
H     5.36999989   9.10000038  55.28999710
S    13.76000023   8.64000034  50.94999695
C    11.05000019   8.23999977  51.49000168
C    12.35999966   8.02999973  51.84999847
C    12.68000031   7.40999985  53.09999847
C    11.67000008   6.84000015  53.86000061
C    10.31999969   7.03999996  53.48999786
C     9.27999973   6.67999983  54.38999939
C     7.97999954   6.89000034  54.00000000
C     7.63000011   7.53000021  52.77999878
C     8.61999989   8.02999973  51.95999908
C     9.98000050   7.76999998  52.29999924
C    14.11000061   7.57000017  53.33000183
C    14.84000015   8.19000053  52.28000259
C    16.18999863   8.50000000  52.28000259
C     6.17000008   7.82000017  52.51999664
H     5.72141457   7.27884912  51.68691254
H    10.85999966   8.63000011  50.50000000
H    11.94000053   6.28999996  54.75999832
H     9.51000023   6.21000004  55.34000015
H     7.16000032   6.77999973  54.71000290
H     8.34999943   8.63000011  51.10000229
H    16.64999962   9.04999924  51.46999741
H     5.58000040   7.69999981  53.43999863
H     6.12999964   8.89000034  52.30999756
S    17.20000076   7.03000021  55.83000183
C    19.96000099   7.34000015  55.27000046
C    18.63999939   7.62000036  54.97000122
C    18.27999878   8.32999992  53.77999878
C    19.29000092   8.73000050  52.93000031
C    20.63999939   8.43000031  53.20000076
C    21.77000046   8.88000011  52.45999908
C    23.06999969   8.55000019  52.80000305
C    23.36999893   7.63999987  53.83999634
C    22.34000015   7.30000019  54.68000031
C    21.00000000   7.64999962  54.36000061
C    16.86000061   8.21000004  53.47999954
C    16.14999962   7.50999975  54.47999954
C    14.80999947   7.13000011  54.45999908
C    24.77999878   7.23000002  54.22999954
H    25.19413185   7.84405851  55.02970123
H    20.15999985   6.78999996  56.18999863
H    19.04999924   9.35999966  52.06999969
H    21.61000061   9.56999969  51.63999939
H    23.88000107   8.86999989  52.15999985
H    22.47999954   6.60000038  55.50000000
H    14.35999966   6.57999992  55.27999878
H    25.36000061   7.28999996  53.30999756
H    24.77999878   6.15999985  54.50000000
