96

S    16.97000122  12.41000080  58.68000031
C    19.65999985  12.42000008  57.97000122
C    18.35000038  12.22000027  57.58999634
C    17.98999977  11.69999981  56.30000305
C    19.09000015  11.54999924  55.47000122
C    20.45000076  11.76000023  55.80999756
C    21.50000000  11.61000061  54.86999893
C    22.78000069  12.02999973  55.13000107
C    23.02000046  12.68000031  56.37000275
C    22.09000015  12.69000053  57.38999939
C    20.78000069  12.20000076  57.14000320
C    16.55999947  11.47999954  56.20999908
C    15.88000107  11.97000027  57.35000229
C    14.48999977  12.10999966  57.39999771
C    24.47000122  13.02000046  56.60999680
H    24.86773300  12.51573181  57.49069214
H    19.78999901  12.93000031  58.92000198
H    18.79999924  11.40999985  54.43000031
H    21.25000000  11.17000008  53.90999603
H    23.55999947  11.89000034  54.38999939
H    22.19000053  13.22999954  58.33000183
H    14.07999992  12.57999992  58.29000092
H    25.06999969  12.71999931  55.73999786
H    24.70000076  14.09000015  56.70000076
S    13.27000046  10.62999916  53.95999908
C    10.59000015  10.34000015  54.75999832
C    11.87000084  10.77999973  55.04000092
C    12.27000046  11.39999962  56.25999832
C    11.23999977  11.72999954  57.11999893
C     9.88000011  11.46000004  56.81000137
C     8.78999996  11.72999954  57.68000031
C     7.48000050  11.40999985  57.38999939
C     7.22000027  10.62000084  56.24000168
C     8.18000031  10.40999985  55.27000046
C     9.52000046  10.76000023  55.59999847
C    13.71000099  11.61999893  56.35000229
C    14.42000008  11.16000080  55.20999908
C    15.80000019  11.03000069  55.12000275
C     5.82999992  10.11000061  55.93000031
H     5.24531698  10.83728886  55.36670685
H    10.31999969   9.86999989  53.82999802
H    11.51999950  12.15000057  58.08000183
H     9.17000008  12.25999928  58.54999924
H     6.84000015  11.59000015  58.23999786
H     7.96000004   9.84000015  54.38000107
H    16.23999977  10.57999992  54.23999786
H     5.19999981   9.80000019  56.77000046
H     5.97000027   9.23999977  55.27999878
S    17.35999870  12.76000023  52.77000046
C    20.05000114  12.75000000  52.02000046
C    18.75000000  12.43000031  51.72000122
C    18.38000107  11.92000008  50.43000031
C    19.37999916  11.82000065  49.47999954
C    20.72000122  12.17000008  49.72999954
C    21.80000114  12.06999969  48.81000137
C    23.08000183  12.41000080  49.18000031
C    23.39999962  13.03999996  50.40999985
C    22.39000130  13.07999992  51.35000229
C    21.05999947  12.71000004  51.03000259
C    16.93000031  11.82999992  50.30000305
C    16.26000023  12.30000019  51.45000076
C    14.86999989  12.39999962  51.51000214
C    24.84000015  13.28999996  50.79000092
H    25.23126221  12.60706902  51.54406738
H    20.29999924  13.31999969  52.90999985
H    19.05999947  11.26000023  48.61000061
H    21.70999908  11.56000042  47.85999680
H    23.90999985  12.03999996  48.59000397
H    22.53999901  13.35000038  52.38999939
H    14.50000000  12.76000023  52.45999908
H    25.51000214  13.25000000  49.93000031
H    24.84000015  14.32999992  51.14999771
S    13.69999981  10.97000027  48.00000000
C    10.98999977  11.07999992  48.61999893
C    12.28000069  11.39999962  48.96999741
C    12.64000034  11.87999916  50.27000046
C    11.56999969  12.07999992  51.12999725
C    10.22999954  11.78999996  50.79999924
C     9.19999981  11.92999935  51.77999878
C     7.90999985  11.63000011  51.40999603
C     7.59000015  10.95000076  50.20000076
C     8.59000015  10.72000027  49.27999878
C     9.89999962  11.21999931  49.52000046
C    14.07999992  11.84999943  50.50000000
C    14.77000046  11.31999969  49.38000107
C    16.14999962  11.28999901  49.27000046
C     6.17000008  10.50000000  49.93999863
H     5.59614229  11.21014881  49.34461975
H    10.72000027  10.65000057  47.65999603
H    11.78999996  12.28000069  52.16999817
H     9.53999996  12.05000019  52.81000137
H     7.13999987  11.57999992  52.15999985
H     8.32999992  10.26999950  48.33000183
H    16.56999969  10.88000107  48.34999847
H     5.65999985  10.39999962  50.90999985
H     6.06999969   9.55999947  49.38000107
