96

S    16.10999870  12.39999962  58.81999969
C    18.79999924  12.65999985  58.09999847
C    17.54999924  12.17000008  57.81000137
C    17.27000046  11.56000042  56.53999710
C    18.32999992  11.19999981  55.72999954
C    19.62000084  11.68000031  56.03000259
C    20.72000122  11.32999992  55.19000244
C    22.01000023  11.71000004  55.48999786
C    22.29999924  12.43999958  56.66999817
C    21.21999931  12.89000034  57.39999771
C    19.86999893  12.51000023  57.18000031
C    15.84000015  11.52999973  56.29000092
C    15.11000061  11.97000027  57.42000198
C    13.71999931  11.98999977  57.48000336
C    23.74000168  12.79000092  56.98999786
H    24.18118095  12.10688210  57.71581268
H    19.04000092  12.97000027  59.10999680
H    18.12999916  10.72999954  54.77000427
H    20.48000145  10.71000004  54.33000183
H    22.81999969  11.49000072  54.79999924
H    21.51000023  13.50999928  58.25000000
H    13.15000057  12.31999969  58.34000015
H    24.30999947  12.69999981  56.05999756
H    23.74000168  13.81999969  57.35000229
S    12.69000053  10.69000053  53.81000137
C    10.01000023  10.65999985  54.52000046
C    11.28999901  11.03000069  54.85000229
C    11.61000061  11.54999924  56.13999939
C    10.59999943  11.82999992  57.04999924
C     9.26000023  11.47999954  56.76000214
C     8.22000027  11.57999992  57.72999573
C     6.98999977  11.07999992  57.39999771
C     6.70000029  10.44000053  56.16000366
C     7.69999981  10.29999924  55.22999573
C     9.00000000  10.80999947  55.51000214
C    13.04999924  11.61000061  56.31000137
C    13.75000000  11.11999989  55.18000031
C    15.13000011  11.03999996  55.18000031
C     5.28999996  10.11000061  55.72000122
H     4.88236046  10.88952160  55.07635880
H     9.81000042  10.05000019  53.63999939
H    10.85999966  12.15999985  58.04999924
H     8.52000046  12.20999908  58.55999756
H     6.09000015  11.39999962  57.91999817
H     7.53999996  10.18000031  54.15999985
H    15.67000008  10.65999985  54.31999969
H     4.63999987   9.90999985  56.59000015
H     5.36999989   9.10000038  55.28999710
S    17.00000000  12.51000023  52.91999817
C    19.75000000  12.55000019  52.25999832
C    18.45000076  12.25000000  51.93000031
C    18.06999969  11.90999985  50.59000015
C    19.07999992  11.77999973  49.65999985
C    20.43999863  11.84000015  50.05000305
C    21.52000046  11.95000076  49.13000107
C    22.84000015  12.17000008  49.45999908
C    23.13999939  12.46000099  50.81999969
C    22.15999985  12.46999931  51.77999878
C    20.81000137  12.23999977  51.38000107
C    16.62999916  11.80999947  50.35999680
C    15.93999958  12.23000050  51.52999878
C    14.55000019  12.23999977  51.53999710
C    24.54000092  12.97000027  51.09000397
H    25.01495361  12.42415810  51.90522003
H    19.96999931  12.93000031  53.26000214
H    18.86000061  11.92000008  48.60000229
H    21.42000008  11.92999935  48.04999924
H    23.48999977  12.09000015  48.60000229
H    22.37999916  12.72999954  52.81000137
H    13.99000072  12.42000008  52.44999695
H    25.10999870  12.89000034  50.15999603
H    24.47999954  14.02999973  51.32999802
S    13.38999939  11.14999962  47.85999680
C    10.67999935  11.18999958  48.56999969
C    11.98999977  11.44999981  48.89999771
C    12.38000011  11.92000008  50.20000076
C    11.36000061  12.20000076  51.09000397
C     9.98999977  11.97999954  50.79000092
C     8.97000027  12.17000008  51.77000046
C     7.65999985  11.92000008  51.44000244
C     7.30999994  11.59999943  50.10000229
C     8.27000046  11.31999969  49.15000153
C     9.64999962  11.46999931  49.48999786
C    13.81999969  11.97999954  50.37000275
C    14.48999977  11.57999992  49.19000244
C    15.88000107  11.50000000  49.22000122
C     5.84999990  11.31999969  49.85000229
H     5.41454983  11.76972771  48.95768738
H    10.46000004  10.75000000  47.58999634
H    11.64000034  12.48999977  52.09999847
H     9.30000019  12.35999966  52.78999710
H     6.97000027  11.95000076  52.28000259
H     8.14000034  11.02000046  48.11999893
H    16.39999962  11.42000008  48.27999878
H     5.36999989  11.51000023  50.81999969
H     5.80999947  10.21999931  49.77000427
