96

S    16.67000008  12.81999969  58.54999924
C    19.40999985  12.76999950  57.84999847
C    18.11000061  12.41000080  57.58999634
C    17.71000099  11.76000023  56.38000107
C    18.67000008  11.51999950  55.41999817
C    19.98999977  11.98999977  55.63000107
C    21.02000046  11.71000004  54.68000031
C    22.29000092  12.20000076  54.86000061
C    22.67999840  12.89999962  56.03000259
C    21.70000076  13.21000004  56.95000076
C    20.38999939  12.67000008  56.83000183
C    16.26000023  11.59999943  56.25999832
C    15.55999947  12.28999996  57.27000427
C    14.18000031  12.39999962  57.37999725
C    24.13999939  13.14000034  56.31999969
H    24.52536392  12.30504417  56.90518570
H    19.68000031  13.23999977  58.79000092
H    18.46999931  11.05999947  54.45999908
H    20.72000122  11.18000031  53.77999878
H    23.01000214  11.92000008  54.09999847
H    22.04999924  13.71999931  57.84999847
H    13.67000008  12.71000004  58.29000092
H    24.70999908  13.27999973  55.38999939
H    24.23000145  14.07999992  56.88000107
S    13.03999996  10.98999977  53.83999634
C    10.34999943  10.69000053  54.61999893
C    11.64000034  11.05000019  54.93000031
C    12.01000023  11.59999943  56.19999695
C    11.00000000  11.90999985  57.09000015
C     9.65999985  11.61000061  56.76000214
C     8.56000042  11.94000053  57.60000229
C     7.26000023  11.71000004  57.22000122
C     6.93000031  11.10000038  55.97000122
C     7.95000029  10.71000004  55.13000107
C     9.28999996  10.95000076  55.52999878
C    13.43999958  11.84999943  56.32999802
C    14.13000011  11.42000008  55.18000031
C    15.51000023  11.21000099  55.13999939
C     5.50000000  10.72000027  55.70999908
H     5.16565561  11.07568550  54.73542023
H    10.10000038  10.19000053  53.68999863
H    11.25000000  12.48000050  57.97999954
H     8.73999977  12.43999958  58.54000092
H     6.46000004  11.95000076  57.90999985
H     7.72000027  10.19000053  54.20000076
H    15.93000031  11.00000000  54.15999985
H     4.94999981  11.26000023  56.49000168
H     5.33999968   9.64999962  55.91999817
S    13.43999958   8.89000034  50.80999756
C    10.82999992   8.39999962  51.56999969
C    12.15999985   8.19000053  51.83000183
C    12.64000034   7.51999950  53.00000000
C    11.72000027   6.97000027  53.87000275
C    10.34000015   7.16000032  53.63999939
C     9.30000019   6.63000011  54.45000076
C     7.96000004   6.72999954  54.19000244
C     7.53000021   7.48000050  53.06999969
C     8.47999954   8.05000019  52.25000000
C     9.86999989   7.86000013  52.47000122
C    14.07999992   7.69999981  53.11999893
C    14.63999939   8.39999962  52.02000046
C    15.98000050   8.76999950  52.08000183
C     6.10000038   7.92999983  52.84000015
H     5.60082769   7.21689653  52.18394470
H    10.67000008   8.85999966  50.59999847
H    12.05000019   6.34999990  54.69999695
H     9.55000019   6.03999996  55.33000183
H     7.22000027   6.37000036  54.91000366
H     8.15999985   8.65999985  51.39999771
H    16.47999954   9.27999973  51.25999832
H     5.63000011   8.17000008  53.80000305
H     6.14000034   8.86999989  52.25999832
S    17.38000107   7.13999987  55.40999985
C    20.02000046   7.82999992  54.81999969
C    18.68000031   7.96000004  54.52999878
C    18.20999908   8.59000015  53.33000183
C    19.18000031   8.94999981  52.42000198
C    20.55999947   8.85999966  52.70000076
C    21.45999908   9.34000015  51.70000076
C    22.79999924   9.28999996  52.02999878
C    23.29000092   8.65999985  53.20999908
C    22.43000031   8.15999985  54.15999985
C    21.02999878   8.27999973  53.93000031
C    16.77000046   8.43000031  53.18999863
C    16.15999985   7.76000023  54.27999878
C    14.81999969   7.39000034  54.27000046
C    24.77000046   8.39999962  53.34999847
H    25.35124779   8.90327644  54.12263489
H    20.29000092   7.34000015  55.75000000
H    18.84000015   9.26000023  51.43000031
H    21.09999847   9.72999954  50.76000214
H    23.48999977   9.55000019  51.24000168
H    22.79999924   7.71000004  55.07999802
H    14.39000034   6.88000011  55.13000107
H    25.31999969   8.52999973  52.41000366
H    24.96999931   7.34000015  53.55999756
