96

S    16.69999886  12.55000019  58.85000229
C    19.38999939  12.36999989  58.29000092
C    18.11000061  12.01000023  57.91999817
C    17.77000046  11.52999973  56.62000275
C    18.78999901  11.43000031  55.68999863
C    20.10000038  11.87999916  55.98999786
C    21.15999985  11.87000084  55.04000092
C    22.46000099  12.09000015  55.41999817
C    22.76000023  12.57999992  56.72000122
C    21.76000214  12.67000008  57.65999603
C    20.43999863  12.25999928  57.34000397
C    16.34000015  11.61999893  56.36000061
C    15.65000057  12.15999985  57.47000122
C    14.26000023  12.20000076  57.50000000
C    24.15999985  13.00000000  57.09999847
H    24.65180969  12.30861473  57.78425598
H    19.57999992  12.98999977  59.15999985
H    18.54999924  11.13000011  54.68000031
H    20.95999908  11.56999969  54.01000214
H    23.22000122  11.92999935  54.65000153
H    21.94000053  13.12000084  58.63999939
H    13.85000038  12.51999950  58.44999695
H    24.73999977  13.26000023  56.20999908
H    24.02000046  13.96000004  57.61000061
S    13.09999943  11.00999928  53.94000244
C    10.36000061  10.90999985  54.68999863
C    11.67000008  11.21000099  54.97000122
C    12.01000023  11.77000046  56.25000000
C    10.98000050  12.06999969  57.11999893
C     9.63000011  11.73999977  56.84000015
C     8.60999966  11.92000008  57.81999969
C     7.31999969  11.56999969  57.50999832
C     6.94999981  11.02000046  56.25999832
C     7.92000008  10.85000038  55.28999710
C     9.27999973  11.13000011  55.58000183
C    13.45000076  11.82000065  56.43000031
C    14.18000031  11.39000034  55.28999710
C    15.55999947  11.21999931  55.26000214
C     5.53999996  10.62000084  55.90000153
H     5.20648527  11.22316456  55.05557251
H    10.11999989  10.59000015  53.68000031
H    11.25000000  12.31999969  58.15000153
H     8.89000034  12.25999928  58.81999969
H     6.56000042  11.71000004  58.27000046
H     7.53000021  10.46000004  54.36000061
H    16.11999893  10.90999985  54.38000107
H     4.96000004  10.70000076  56.83000183
H     5.49000025   9.55000019  55.65999985
S    13.38999939   9.02000046  51.02000427
C    10.72000027   8.60999966  51.79000092
C    12.05000019   8.36999989  51.98999786
C    12.56000042   7.69000006  53.15000153
C    11.61999893   7.17000008  54.02000046
C    10.22999954   7.36999989  53.83999634
C     9.30999947   6.76000023  54.72999954
C     7.95000029   6.89000034  54.54000092
C     7.50000000   7.57000017  53.37999725
C     8.34000015   8.17000008  52.48000336
C     9.75000000   8.10999966  52.70000076
C    14.01000023   7.64999962  53.23999786
C    14.57999992   8.43000031  52.19999695
C    15.92000008   8.76000023  52.15000153
C     6.01999998   7.69000006  53.09000015
H     5.72851133   7.45538759  52.06623840
H    10.34999943   9.09000015  50.89000320
H    11.80999947   6.53999996  54.87999725
H     9.70000076   6.02999973  55.44000244
H     7.20000029   6.51000023  55.22999573
H     8.01999950   8.63000011  51.55000305
H    16.35000038   9.22000027  51.25999832
H     5.46999979   7.14999962  53.87000275
H     5.68000031   8.71999931  53.27000046
S    17.21999931   7.35000038  55.59999847
C    19.89999962   7.94000053  55.02999878
C    18.56999969   8.06999969  54.69999695
C    18.18000031   8.60999966  53.43000031
C    19.19999886   9.13999939  52.65999603
C    20.58000183   9.09000015  52.94000244
C    21.64999962   9.64999962  52.16999817
C    22.95999908   9.39999962  52.49000168
C    23.31000137   8.64999962  53.63999939
C    22.27999878   8.03999996  54.33000183
C    20.92000008   8.40999985  54.15999985
C    16.76000023   8.38999939  53.20999908
C    16.10999870   7.69000006  54.26000214
C    14.81999969   7.18999958  54.29000092
C    24.73999977   8.30999947  53.99000168
H    25.05895042   8.62895107  54.98229218
H    20.23999977   7.30000019  55.84000015
H    18.93000031   9.57999992  51.70000076
H    21.31000137  10.21999931  51.31000137
H    23.77000046   9.73999977  51.84999847
H    22.56000137   7.36000013  55.13000107
H    14.47999954   6.58999968  55.13999939
H    25.43000031   8.75000000  53.26000214
H    24.77999878   7.22000027  54.08000183
