96

S    17.13999939  11.84000015  58.95000076
C    19.79999924  12.34000015  58.13000107
C    18.50000000  12.02000046  57.81999969
C    18.11000061  11.57999992  56.52000046
C    19.04999924  11.42000008  55.52000046
C    20.40999985  11.59000015  55.86000061
C    21.38000107  11.46000004  54.82999802
C    22.70999908  11.68000031  55.08999634
C    23.12000084  12.05999947  56.39999771
C    22.20000076  12.15000057  57.41000366
C    20.79999924  11.96000004  57.19999695
C    16.64999962  11.52999973  56.40999603
C    15.95999908  11.56999969  57.64999771
C    14.57999992  11.56999969  57.77000046
C    24.57999992  12.39999962  56.58000183
H    25.04148865  11.95271111  57.46037674
H    20.12000084  12.53000069  59.15000153
H    18.76000023  11.30000019  54.47999954
H    21.01000023  11.23000050  53.82999802
H    23.39999962  11.64000034  54.26000214
H    22.42000198  12.61999989  58.36999893
H    14.14999962  11.77999973  58.74000168
H    25.15999985  12.05999947  55.70999908
H    24.63000107  13.48999977  56.65000153
S    13.30000019  10.64000034  54.20000076
C    10.64000034  10.48999977  54.94999695
C    11.94000053  10.71000004  55.34000015
C    12.30000019  11.19999981  56.63999939
C    11.32999992  11.26999950  57.62000275
C    10.00000000  10.88999939  57.29999924
C     8.93000031  10.92000008  58.23999786
C     7.60999966  10.78999996  57.90000153
C     7.25000000  10.42000008  56.58000183
C     8.27000046  10.31000042  55.65999985
C     9.63000011  10.59999943  55.93999863
C    13.75000000  11.33999920  56.66999817
C    14.45000076  11.19999981  55.44000244
C    15.82999992  11.28000069  55.31000137
C     5.82999992  10.06000042  56.19999695
H     5.39062214  10.78284740  55.51258087
H    10.40999985  10.00000000  54.01000214
H    11.63000011  11.64000034  58.60000229
H     8.97999954  11.40999985  59.20999908
H     6.81999969  10.90999985  58.63999939
H     8.03999996  10.19999981  54.59999847
H    16.32999992  11.00999928  54.38000107
H     5.09999990   9.96999931  57.01000214
H     5.66999960   9.03999996  55.83000183
S    13.66000080   9.06000042  51.31000137
C    11.06999969   8.19000053  51.68000031
C    12.38000011   8.13000011  52.11999893
C    12.84999943   7.46000004  53.29000092
C    11.85999966   6.90999985  54.08000183
C    10.47999954   7.11000013  53.79000092
C     9.44999981   6.67000008  54.65999985
C     8.11999989   6.94999981  54.43999863
C     7.68000031   7.50000000  53.20999908
C     8.67000008   7.79999971  52.29999924
C    10.06999969   7.68000031  52.54000092
C    14.27000046   7.65999985  53.50999832
C    14.84000015   8.47999954  52.50999832
C    16.15999985   8.90999985  52.43999863
C     6.21000004   7.78999996  53.00000000
H     5.72539997   7.19850349  52.22321320
H    10.76000023   8.56000042  50.70999908
H    12.02999973   6.17999983  54.86999893
H     9.68000031   6.21000004  55.61999893
H     7.42000008   6.69000053  55.22999573
H     8.43000031   8.23000050  51.32999802
H    16.51000023   9.59999943  51.68000031
H     5.68000031   7.63999987  53.95000076
H     6.10000038   8.85999966  52.77000046
S    17.76000023   6.84000015  55.44000244
C    20.38000107   7.63000011  54.68000031
C    19.02000046   7.67000008  54.50000000
C    18.45000076   8.45000076  53.43999863
C    19.27000046   9.10000038  52.55000305
C    20.68000031   9.02000046  52.64999771
C    21.54999924   9.63000011  51.70000076
C    22.90999985   9.59000015  51.86999893
C    23.47999954   8.96000004  53.01000214
C    22.65000153   8.36000061  53.93000031
C    21.24000168   8.30999947  53.76999664
C    16.98999977   8.42000008  53.46000290
C    16.46999931   7.57000017  54.45999908
C    15.14000034   7.17000008  54.48999786
C    24.96999931   9.13000011  53.22999954
H    25.22651482   8.86635971  54.25605774
H    20.85000038   7.07999992  55.48999786
H    18.88000107   9.61999989  51.68000031
H    21.12999916  10.18000031  50.86000061
H    23.52999878  10.22999954  51.24000168
H    23.11000061   7.90999985  54.80999756
H    14.78999996   6.47000027  55.26000214
H    25.28000069  10.14999962  52.95999908
H    25.45999908   8.46000004  52.51999664
