96

S    16.45000076  12.72999954  58.66000366
C    19.12999916  12.84999943  58.02000046
C    17.86000061  12.48000050  57.62000275
C    17.56999969  11.75000000  56.43000031
C    18.61999893  11.54999924  55.54999924
C    19.89999962  12.06999969  55.87999725
C    21.01000023  11.87999916  55.00999832
C    22.30999947  12.15000057  55.37000275
C    22.57999802  12.86000061  56.56999969
C    21.55999947  13.07000065  57.47000122
C    20.22999954  12.64000034  57.15999985
C    16.13000107  11.63000011  56.25000000
C    15.39999962  12.10999966  57.36999893
C    14.02999973  12.31999969  57.35000229
C    23.98999977  13.34000015  56.79999924
H    24.54600906  12.67706871  57.46292877
H    19.31999969  13.27999973  58.99000168
H    18.43000031  10.88000107  54.72000122
H    20.89999962  11.44000053  54.02999878
H    23.09000015  12.09000015  54.61000061
H    21.70000076  13.42000008  58.47999954
H    13.52000046  12.61999989  58.26000214
H    24.63999939  13.52000046  55.93000031
H    23.81000137  14.34000015  57.21000290
S    13.01000023  10.88000107  53.76999664
C    10.27999973  11.00000000  54.29000092
C    11.56000042  11.25000000  54.72000122
C    11.90000057  11.65999985  56.04999924
C    10.80999947  11.80999947  56.90000153
C     9.48000050  11.47999954  56.52999878
C     8.47000027  11.59000015  57.51999664
C     7.17999983  11.21999931  57.18000031
C     6.90999985  10.67000008  55.90000153
C     7.86999989  10.59999943  54.91000366
C     9.19999981  11.02000046  55.20000076
C    13.32999992  11.84999943  56.23000336
C    14.06000042  11.36000061  55.12000275
C    15.44000053  11.19999981  55.11000061
C     5.58000040  10.15999985  55.40000153
H     5.10870600  10.73126507  54.60022736
H    10.05000019  10.62000084  53.29000092
H    10.98999977  12.09000015  57.93000031
H     8.78000069  11.96000004  58.48999786
H     6.37000036  11.19999981  57.90000153
H     7.67000008  10.21999931  53.90999603
H    16.00000000  10.81999969  54.26000214
H     4.92999983  10.06999969  56.27999878
H     5.73999977   9.15999985  54.97000122
S    12.77999973   8.78000069  51.02000427
C    10.13000011   8.27999973  51.79000092
C    11.47999954   8.09000015  52.00000000
C    11.96000004   7.42000008  53.16999817
C    11.03000069   6.84000015  54.02000046
C     9.63999939   6.94999981  53.75999832
C     8.60999966   6.47000027  54.62999725
C     7.30000019   6.42000008  54.20999908
C     6.90000010   6.78999996  52.90000153
C     7.82999992   7.42999983  52.11000061
C     9.17000008   7.57000017  52.56000137
C    13.40999985   7.44000006  53.27999878
C    13.96000004   8.15999985  52.18999863
C    15.29000092   8.52000046  52.09000015
C     5.46999979   6.56000042  52.45999908
H     5.19863081   7.32411909  51.73159027
H     9.72000027   8.84000015  50.94999695
H    11.31999969   6.42000008  54.98000336
H     8.86999989   6.09000015  55.61000061
H     6.54999971   5.98999977  54.86999893
H     7.48000050   7.96999979  51.23000336
H    15.75000000   8.92000008  51.18999863
H     5.42999983   5.55000019  52.02000046
H     4.80999994   6.67999983  53.33000183
S    16.73999977   7.07999992  55.45999908
C    19.37000084   7.77999973  54.77000427
C    18.02999878   7.76999998  54.45999908
C    17.57999992   8.51000023  53.31999969
C    18.52000046   9.17000008  52.56000137
C    19.92000008   9.13000011  52.77999878
C    20.89999962   9.85999966  52.05999756
C    22.25000000   9.76000023  52.31999969
C    22.67000008   8.88000011  53.36000061
C    21.73999977   8.30999947  54.20999908
C    20.35000038   8.36999989  53.93000031
C    16.14999962   8.27000046  53.16999817
C    15.54999924   7.55000019  54.22999954
C    14.25000000   7.07000017  54.34000015
C    24.13999939   8.60000038  53.48999786
H    24.53155518   9.14105701  54.35141754
H    19.76000023   7.26999998  55.65000153
H    18.29000092   9.72000027  51.65000153
H    20.52999878  10.59000015  51.35000229
H    22.93000031  10.40999985  51.79000092
H    22.10000038   7.73000002  55.05000305
H    13.88000011   6.63000011  55.27000046
H    24.70999908   8.97999954  52.63999939
H    24.37999916   7.53000021  53.50000000
