96

S    16.28999901  11.96000004  58.85000229
C    18.95000076  12.18000031  58.11000061
C    17.69000053  11.72000027  57.80000305
C    17.35999870  10.98999977  56.60999680
C    18.44000053  10.77000046  55.77000046
C    19.77000046  11.14999962  56.05999756
C    20.76999855  11.03000069  55.06000137
C    22.06999969  11.36000061  55.38000107
C    22.36999893  12.00000000  56.59999847
C    21.38999939  12.22000027  57.54000092
C    20.05000114  11.80999947  57.30999756
C    15.93000031  10.77000046  56.44000244
C    15.27999973  11.13000011  57.64999771
C    13.90999985  11.38000011  57.64999771
C    23.75999832  12.51000023  56.91999817
H    24.36425209  11.95550919  57.63799286
H    19.01000023  12.98999977  58.83999634
H    18.22999954  10.43000031  54.75999832
H    20.52000046  10.75000000  54.03999710
H    22.98000145  11.25000000  54.79000092
H    21.61999893  12.84999943  58.40000153
H    13.40999985  11.73999977  58.54000092
H    24.25000000  12.51000023  55.93999863
H    23.59000015  13.53999996  57.25999832
S    12.64999962  10.25000000  54.08000183
C     9.94999981  10.17000008  54.94999695
C    11.26999950  10.52000046  55.14999771
C    11.72000027  11.00000000  56.42000198
C    10.81999969  11.28999901  57.42000198
C     9.43000031  11.14999962  57.15999985
C     8.45000076  11.51999950  58.11999893
C     7.11999989  11.19999981  57.95000076
C     6.72999954  10.75000000  56.66999817
C     7.59999990  10.44999981  55.65000153
C     8.98999977  10.54999924  55.93000031
C    13.17999935  11.02000046  56.51000214
C    13.85000038  10.57999992  55.34000015
C    15.22999954  10.40999985  55.27999878
C     5.32999992  10.18000031  56.52999878
H     4.86024570  10.61416721  55.64743042
H     9.56999969   9.70000076  54.05000305
H    11.25000000  11.68000031  58.33000183
H     8.80999947  11.73999977  59.12000275
H     6.48000002  11.13000011  58.82999802
H     7.26000023   9.96999931  54.72999954
H    15.78999996  10.08999920  54.41999817
H     4.77999973  10.55999947  57.39999771
H     5.26000023   9.10000038  56.40999603
S    17.13000107  12.13000107  52.68000031
C    19.69000053  12.76999950  51.83000183
C    18.50000000  12.13999939  51.55000305
C    18.11000061  11.89000034  50.20000076
C    19.11000061  11.90999985  49.23999786
C    20.40999985  12.38999939  49.50000000
C    21.50000000  12.39999962  48.57999802
C    22.78000069  12.71999931  48.95999908
C    23.08000183  13.10999966  50.30000305
C    22.04000092  13.17000008  51.18999863
C    20.71000099  12.79000092  50.84000015
C    16.67000008  11.65999985  50.13000107
C    15.98999977  11.98999977  51.32999802
C    14.60000038  12.06999969  51.37000275
C    24.48999786  13.42000008  50.76000214
H    25.00452614  12.66964912  51.36027908
H    19.86999893  13.10999966  52.84999847
H    18.92000008  11.44999981  48.27000046
H    21.35999870  11.90999985  47.62000275
H    23.59999847  12.69999981  48.26000214
H    22.36999893  13.40000057  52.19999695
H    14.04000092  12.20999908  52.29000092
H    25.00000000  13.55000019  49.79999924
H    24.48999786  14.37999916  51.30000305
S    13.48000050  11.07999992  47.64999771
C    10.80999947  10.82999992  48.56999969
C    12.10000038  11.25000000  48.75999832
C    12.46999931  11.50000000  50.12000275
C    11.52999973  11.56999969  51.12999725
C    10.14999962  11.44999981  50.86000061
C     9.15999985  11.69999981  51.84999847
C     7.88999987  11.23999977  51.58000183
C     7.50999975  10.57999992  50.38000107
C     8.47999954  10.40999985  49.41999817
C     9.80000019  10.92000008  49.56999969
C    13.92000008  11.67000008  50.21999741
C    14.59000015  11.33999920  49.01000214
C    15.98000050  11.33999920  48.95999908
C     6.14000034   9.98000050  50.15999603
H     5.52064466  10.58511734  49.49792862
H    10.38000011  10.46000004  47.63999939
H    11.92999935  11.79999924  52.11999893
H     9.42000008  11.95000076  52.87000275
H     7.11000013  11.31999969  52.34000397
H     8.26000023   9.89000034  48.48999786
H    16.52000046  11.05000019  48.06000137
H     5.69000006   9.94999981  51.16000366
H     6.30000019   8.97000027  49.75000000
