96

S    16.69000053  12.35000038  58.66000366
C    19.43000031  12.15000057  58.09000015
C    18.12000084  12.01000023  57.67000198
C    17.73999977  11.47999954  56.39999771
C    18.75000000  11.13000011  55.52000046
C    20.10000038  11.31000042  55.89000320
C    21.12999916  11.28000069  54.89999771
C    22.43999863  11.51000023  55.22999573
C    22.85000038  11.90000057  56.52999878
C    21.84999847  11.96000004  57.47000122
C    20.46999931  11.82000065  57.18000031
C    16.31000137  11.32999992  56.18999863
C    15.62999916  11.85999966  57.31999969
C    14.23999977  11.97000027  57.38999939
C    24.21999931  12.48999977  56.79999924
H    24.78867340  11.83602524  57.46107864
H    19.71999931  12.68000031  58.99000168
H    18.50000000  10.97000027  54.47000122
H    20.96999931  11.03000069  53.85000229
H    23.23999786  11.35000038  54.51000214
H    22.13999939  12.18000031  58.50000000
H    13.80000019  12.28000069  58.33000183
H    24.71999931  12.55000019  55.83000183
H    24.07999992  13.48000050  57.25000000
S    13.01000023  10.62999916  53.86000061
C    10.36999893  10.34999943  54.73999786
C    11.57999992  11.00000000  54.85000229
C    12.00000000  11.56999969  56.10000229
C    11.02000046  11.77999973  57.04999924
C     9.68000031  11.39999962  56.84999847
C     8.65999985  11.72999954  57.78999710
C     7.39000034  11.23000050  57.63999939
C     7.13000011  10.34000015  56.56000137
C     8.05000019  10.06000042  55.58000183
C     9.39000034  10.52999973  55.73999786
C    13.45000076  11.69000053  56.26999664
C    14.11999893  11.13999939  55.14999771
C    15.48999977  10.92000008  55.13999939
C     5.69000006   9.88000011  56.43000031
H     5.29871273  10.27128792  55.49090958
H    10.17000008   9.68000031  53.90999603
H    11.28999901  12.28999996  57.97000122
H     8.92000008  12.39999962  58.61000061
H     6.57999992  11.57999992  58.26000214
H     7.86999989   9.53999996  54.64000320
H    15.95000076  10.36000061  54.33000183
H     5.10999966  10.34000015  57.23999786
H     5.65999985   8.78000069  56.46999741
S    13.52000046   8.64000034  51.00000000
C    10.84000015   8.15999985  51.59999847
C    12.15000057   8.10999966  52.01000214
C    12.61000061   7.39000034  53.15999985
C    11.64000034   6.67999983  53.86000061
C    10.26999950   6.78999996  53.55999756
C     9.26999950   6.23000050  54.40999985
C     7.94000053   6.28000021  54.06999969
C     7.51999950   6.98999977  52.90999985
C     8.47000027   7.51999950  52.06999969
C     9.85999966   7.50999975  52.37999725
C    14.04999924   7.51999950  53.33000183
C    14.70000076   8.14000034  52.22999954
C    16.05999947   8.38999939  52.25999832
C     6.11999989   7.53999996  52.77999878
H     5.58586788   7.15542507  51.91114426
H    10.62000084   8.78000069  50.72999954
H    11.89000034   6.21999979  54.80999756
H     9.55999947   5.92999983  55.40999985
H     7.17000008   5.92999983  54.77000427
H     8.10000038   8.06999969  51.20999908
H    16.42000008   9.11999989  51.55000305
H     5.56999969   7.27999973  53.69999695
H     6.11999989   8.64000034  52.69000244
S    17.28999901   6.83000040  55.70000076
C    20.02000046   7.42000008  55.14999771
C    18.68999863   7.44999981  54.79999924
C    18.27000046   8.01000023  53.54999924
C    19.18000031   8.53999996  52.65999603
C    20.55999947   8.52000046  52.97999954
C    21.56999969   9.06000042  52.14000320
C    22.90999985   8.88000011  52.37999725
C    23.31999969   8.19999981  53.55999756
C    22.36999893   7.77999973  54.45999908
C    20.96999931   7.85000038  54.19000244
C    16.82999992   7.92000008  53.33000183
C    16.15999985   7.28999996  54.40999985
C    14.78999996   7.03999996  54.40999985
C    24.79999924   7.94000053  53.77999878
H    25.14689064   8.31520939  54.74279785
H    20.39999962   7.02000046  56.07999802
H    18.92000008   8.92000008  51.66999817
H    21.18999863   9.64999962  51.31000137
H    23.64000130   9.18000031  51.63000107
H    22.56000137   7.37999964  55.45000076
H    14.22999954   6.75000000  55.30000305
H    25.38999939   8.40999985  53.00000000
H    24.77000046   6.84999990  53.81000137
