96

S    16.94000053  12.25999928  58.68999863
C    19.64999962  12.10999966  58.11000061
C    18.36000061  11.80999947  57.71999741
C    18.02000046  11.28999901  56.43000031
C    19.05999947  10.93999958  55.59000015
C    20.40999985  11.23999977  55.90999985
C    21.54999924  11.03999996  55.06999969
C    22.82999992  11.13999939  55.56000137
C    23.12999916  11.72000027  56.81999969
C    22.04000092  12.05000019  57.58999634
C    20.69000053  11.78999996  57.19999695
C    16.57999992  11.36999989  56.23000336
C    15.85000038  11.87000084  57.34000397
C    14.47000027  11.98999977  57.27000427
C    24.47000122  12.34000015  57.18000031
H    25.08252335  11.69186592  57.80677032
H    19.92000008  12.56999969  59.05000305
H    18.85000038  10.52000046  54.61000061
H    21.28999901  10.60999966  54.10999680
H    23.62999916  10.93999958  54.86000061
H    22.20000076  12.64000034  58.47999954
H    13.97999954  12.43999958  58.13000107
H    25.03999901  12.55000019  56.26999664
H    24.23999977  13.34000015  57.56000137
S    13.30999947  10.31999969  53.88999939
C    10.52999973  10.50000000  54.54000092
C    11.85999966  10.73999977  54.81999969
C    12.27000046  11.35000038  56.04999924
C    11.32999992  11.65999985  57.02000046
C     9.94999981  11.44999981  56.75000000
C     9.00000000  11.75000000  57.77000046
C     7.67000008  11.59999943  57.44999695
C     7.25000000  11.03999996  56.22000122
C     8.17000008  10.57999992  55.30000305
C     9.55999947  10.85000038  55.51000214
C    13.71000099  11.44000053  56.23000336
C    14.42999935  10.92000008  55.13000107
C    15.81999969  10.90000057  55.14999771
C     5.78999996  10.73999977  55.97999954
H     5.31519794  11.30692863  55.17921448
H    10.22999954   9.98999977  53.61999893
H    11.64000034  12.05000019  57.97999954
H     9.48999977  12.10000038  58.67000198
H     6.88000011  11.87000084  58.13999939
H     7.96000004  10.03999901  54.38999939
H    16.38000107  10.39000034  54.36999893
H     5.23000002  11.00999928  56.88999939
H     5.59000015   9.67000008  55.84999847
S    13.52000046   8.34999943  50.77999878
C    10.85999966   8.06999969  51.39999771
C    12.15000057   7.69999981  51.70000076
C    12.57999992   7.00000000  52.87000275
C    11.61000061   6.53999996  53.75000000
C    10.26000023   6.75000000  53.37999725
C     9.22000027   6.32999992  54.26000214
C     7.90000010   6.71999979  54.16999817
C     7.53000021   7.46999979  53.02999878
C     8.47000027   7.77999973  52.05999756
C     9.85999966   7.62000036  52.30999756
C    14.01000023   7.09000015  53.11999893
C    14.61999989   7.81000042  52.05999756
C    15.90000057   8.32999992  52.25999832
C     6.09000015   7.88999987  52.81000137
H     5.67662191   7.35545921  51.95473099
H    10.57000065   8.82999992  50.68999863
H    11.82999992   6.28000021  54.78000259
H     9.51000023   5.65000010  55.05000305
H     7.22000027   6.19000006  54.84000397
H     8.10000038   8.36999989  51.22000122
H    16.32999992   8.78999996  51.38000107
H     5.51000023   7.63999987  53.70999908
H     6.15000010   8.97000027  52.64999771
S    17.20000076   6.80000019  55.63999939
C    19.89999962   7.44999981  55.08999634
C    18.55999947   7.55999994  54.79000092
C    18.09000015   8.14999962  53.57999802
C    18.97999954   8.67999935  52.67000198
C    20.36000061   8.52999973  52.94000244
C    21.35999870   8.96000004  52.02000046
C    22.70999908   8.75000000  52.18999863
C    23.16999817   8.09000015  53.36000061
C    22.23999977   7.63999987  54.27000046
C    20.85000038   7.86000013  54.10999680
C    16.67000008   7.88999987  53.34000015
C    16.07999992   7.02000046  54.29000092
C    14.72000027   6.71999979  54.27000046
C    24.63999939   7.90000010  53.62999725
H    25.00308418   8.08510113  54.64094162
H    20.15999985   6.85999966  55.96000290
H    18.67000008   8.92000008  51.65000153
H    21.04000092   9.48000050  51.11999893
H    23.40999985   9.22000027  51.52000046
H    22.53000069   7.20000029  55.22999573
H    14.22999954   6.25000000  55.11000061
H    25.20000076   8.64999962  53.06000137
H    24.90999985   6.89000034  53.27000046
