96

S    15.80999947  12.18999958  58.94000244
C    18.55999947  12.28000069  58.30999756
C    17.26000023  12.03999996  57.94000244
C    16.94000053  11.61999893  56.59999847
C    17.98999977  11.36999989  55.72999954
C    19.31999969  11.67000008  56.10000229
C    20.36999893  11.47999954  55.14999771
C    21.65999985  11.82000065  55.47000122
C    22.01999855  12.18999958  56.79000092
C    21.02000046  12.38999939  57.71999741
C    19.64999962  12.11999989  57.42000198
C    15.51000023  11.49000072  56.37000275
C    14.78000069  11.84999943  57.54000092
C    13.40000057  11.94000053  57.48000336
C    23.36999893  12.76000023  57.14000320
H    24.11277390  12.05966949  57.52199936
H    18.71000099  12.74000072  59.29000092
H    17.80999947  10.84000015  54.79999924
H    19.98999977  11.28999901  54.13999939
H    22.44999886  11.89000034  54.73999786
H    21.25999832  12.94999981  58.61999893
H    12.82999992  12.18000031  58.36999893
H    23.85999870  13.15000057  56.24000168
H    23.22999954  13.60000038  57.83000183
S    12.50000000  10.67999935  53.76999664
C     9.77999973  10.59999943  54.45999908
C    11.06999969  10.93999958  54.79000092
C    11.36000061  11.52999973  56.05999756
C    10.36999893  11.63000011  57.01000214
C     9.02000046  11.26999950  56.76000214
C     8.01000023  11.23999977  57.76000214
C     6.76000023  10.78999996  57.42000198
C     6.43000031  10.36999893  56.10000229
C     7.40999985  10.44000053  55.14999771
C     8.76999950  10.75000000  55.44000244
C    12.79000092  11.73999977  56.23000336
C    13.50999928  11.31999969  55.07999802
C    14.88999939  11.17000008  55.15999603
C     5.01999950   9.98000050  55.72999954
H     4.71959496  10.53789520  54.84309006
H     9.53999996  10.06999969  53.54000092
H    10.57999992  11.96000004  58.02999878
H     8.19000053  11.77000046  58.69999695
H     5.98999977  10.77000046  58.18999863
H     7.17999983  10.24000072  54.09999847
H    15.44999981  10.71000004  54.34999847
H     4.35999966  10.18000031  56.59000015
H     4.88000011   8.93000031  55.44000244
S    16.47999954  12.84999943  52.56999969
C    19.18000031  12.84000015  51.79999924
C    17.87999916  12.46000099  51.55000305
C    17.53000069  11.92999935  50.27000046
C    18.53000069  11.72000027  49.33000183
C    19.82999992  12.23999977  49.50000000
C    20.86000061  12.02999973  48.54000092
C    22.18000031  12.34000015  48.77999878
C    22.50000000  12.89000034  50.05000305
C    21.54000092  13.12000084  51.00000000
C    20.17000008  12.79999924  50.77999878
C    16.09000015  11.97000027  50.04000092
C    15.43000031  12.43999958  51.19999695
C    14.04999924  12.61999989  51.22000122
C    23.95999908  13.19000053  50.30000305
H    24.39225388  12.58059120  51.09365082
H    19.55999947  13.22000027  52.74000168
H    18.32999992  11.28999901  48.34999847
H    20.52999878  11.57999992  47.61000061
H    22.88999939  12.09000015  48.00000000
H    21.73999977  13.50999928  52.00000000
H    13.55999947  12.79999924  52.16999817
H    24.60000038  13.09999943  49.40999985
H    23.97000122  14.22000027  50.68999863
S    12.88000011  11.56000042  47.58999634
C    10.14999962  11.38000011  48.27999878
C    11.42000008  11.79999924  48.56999969
C    11.87000084  12.22000027  49.86999893
C    10.95000076  12.23000050  50.90000153
C     9.61000061  11.84999943  50.63999939
C     8.59000015  11.95000076  51.62000275
C     7.27999973  11.59999943  51.37000275
C     6.89000034  11.17000008  50.06999969
C     7.82000017  11.18000031  49.05000305
C     9.19000053  11.42000008  49.33000183
C    13.30000019  12.31999969  50.06999969
C    14.00000000  11.84999943  48.93000031
C    15.38000011  11.65999985  48.87000275
C     5.45000029  10.86999989  49.73999786
H     5.01553631  11.41129875  48.89955902
H     9.85999966  11.17000008  47.25999832
H    11.26000023  12.48000050  51.91999817
H     8.80999947  12.30000019  52.63000107
H     6.48999977  11.82000065  52.08000183
H     7.44999981  10.92000008  48.06000137
H    15.86999989  11.39000034  47.94000244
H     4.86999989  11.26000023  50.59000015
H     5.33999968   9.77999973  49.65000153
