96

S    16.62999916  12.32999992  58.81000137
C    19.40000153  12.27000046  58.20999908
C    18.09000015  12.10000038  57.83000183
C    17.77000046  11.68000031  56.49000168
C    18.78999901  11.36000061  55.61999893
C    20.15999985  11.52999973  55.93000031
C    21.24000168  11.44000053  55.00000000
C    22.53999901  11.72000027  55.34000015
C    22.78000069  12.22000027  56.65000153
C    21.77999878  12.27000046  57.58999634
C    20.43000031  11.96000004  57.28000259
C    16.34000015  11.47999954  56.31000137
C    15.59000015  11.80999947  57.45999908
C    14.21000004  11.96000004  57.50999832
C    24.07999992  12.89999962  57.02000046
H    24.60638237  12.28826046  57.75266647
H    19.71999931  12.46999931  59.22999954
H    18.44000053  10.90999985  54.68999863
H    21.02000046  11.09000015  54.00000000
H    23.29999924  11.69000053  54.56999969
H    22.01999855  12.71999931  58.54999924
H    13.76999950  12.20999908  58.47000122
H    24.57999992  13.03999996  56.04999924
H    23.92000008  13.92000008  57.39999771
S    13.09000015  10.55999947  53.97999573
C    10.39000034  10.34999943  54.81999969
C    11.69000053  10.72000027  55.06000137
C    12.06999969  11.28000069  56.31999969
C    11.10000038  11.40999985  57.29999924
C     9.72999954  11.11999989  57.08000183
C     8.73999977  11.42000008  58.06000137
C     7.40999985  11.23000050  57.75000000
C     7.05999947  10.65999985  56.50000000
C     8.01999950  10.21000004  55.61999893
C     9.39000034  10.53999996  55.80999756
C    13.50000000  11.54999924  56.37000275
C    14.22000027  11.10999966  55.22999573
C    15.60999966  11.09000015  55.18000031
C     5.59999990  10.38000011  56.24000168
H     5.27453232  10.93895531  55.36265182
H    10.14999962   9.77999973  53.93000031
H    11.50000000  11.94000053  58.15999985
H     9.07999992  11.77999973  59.02999878
H     6.61999989  11.50000000  58.43999863
H     7.69999981   9.77000046  54.68000031
H    16.13000107  10.84000015  54.26000214
H     4.94000006  10.47999954  57.11000061
H     5.46000004   9.30999947  56.07999802
S    17.13000107  12.75000000  52.70999908
C    19.81999969  12.81000042  52.04999924
C    18.54999924  12.43999958  51.69000244
C    18.20000076  12.02999973  50.35999680
C    19.19000053  11.90000057  49.40999985
C    20.52000046  12.15999985  49.80999756
C    21.56999969  12.09000015  48.85000229
C    22.86999893  12.46999931  49.09000015
C    23.26000023  12.81000042  50.40999985
C    22.23999977  12.97000027  51.31999969
C    20.85000038  12.74000072  51.07999802
C    16.76000023  11.84999943  50.22999573
C    16.04999924  12.20999908  51.40999603
C    14.67000008  12.31999969  51.39999771
C    24.70000076  13.09999943  50.76000214
H    25.04077530  12.40424728  51.52674866
H    20.07999802  13.25000000  53.02000046
H    18.92000008  11.64000034  48.39000320
H    21.37000084  11.76000023  47.83000183
H    23.61000061  12.35000038  48.29999924
H    22.60999870  13.40000057  52.23999786
H    14.19000053  12.77999973  52.25999832
H    25.43999863  13.15999985  49.94999695
H    24.60000038  14.09000015  51.19999695
S    13.50999928  11.39999962  47.70000076
C    10.80999947  11.23999977  48.43000031
C    12.10999966  11.52999973  48.79000092
C    12.48000050  11.87999916  50.13000107
C    11.51000023  11.92000008  51.11000061
C    10.17000008  11.69999981  50.70999908
C     9.11999989  11.79999924  51.66999817
C     7.82999992  11.39000034  51.42000198
C     7.46000004  11.07999992  50.07999802
C     8.38999939  11.09000015  49.06999969
C     9.77000046  11.31000042  49.38000107
C    13.93000031  11.98999977  50.26000214
C    14.60999966  11.61000061  49.08000183
C    16.00000000  11.61000061  49.08000183
C     6.00000000  10.84000015  49.75999832
H     5.61650467  11.40104008  48.90778732
H    10.62000084  10.80999947  47.44999695
H    11.82000065  12.18999958  52.11999893
H     9.28999996  12.20000076  52.65999603
H     7.13000011  11.36999989  52.23999786
H     8.22000027  10.90000057  48.02000046
H    16.59000015  11.39999962  48.20000076
H     5.44000053  11.03999996  50.68000031
H     5.92999983   9.75000000  49.59000015
