96

S    16.61999893  12.60000038  58.63999939
C    19.32999992  12.79999924  57.90000153
C    18.05999947  12.35000038  57.63000107
C    17.75000000  11.54000092  56.49000168
C    18.78999901  11.18000031  55.65000153
C    20.13000107  11.56999969  55.90999985
C    21.21000099  11.23000050  55.06000137
C    22.52000046  11.59999943  55.27999878
C    22.76000023  12.43000031  56.40999603
C    21.73999977  12.79000092  57.25000000
C    20.38000107  12.44999981  57.02000046
C    16.31000137  11.39999962  56.32999802
C    15.53999996  11.98999977  57.36000061
C    14.19000053  12.30999947  57.25999832
C    24.14999962  12.86000061  56.81000137
H    24.50708771  12.23866749  57.63130188
H    19.54000092  13.42000008  58.76999664
H    18.51000023  10.64000034  54.75000000
H    20.95000076  10.67999935  54.15000153
H    23.32999992  11.40999985  54.59000015
H    22.03000069  13.30000019  58.16999817
H    13.64999962  12.92000008  57.97000122
H    24.79000092  12.76999950  55.91999817
H    24.25000000  13.93000031  57.04999924
S    13.12000084  10.52999973  53.88999939
C    10.39999962  10.78999996  54.47999954
C    11.71000004  11.11999989  54.77000427
C    12.07999992  11.69999981  56.03000259
C    11.13000011  11.90000057  57.02000046
C     9.80000019  11.52999973  56.70999908
C     8.75000000  11.68000031  57.65999603
C     7.40000010  11.63000011  57.36000061
C     7.03000021  11.21000099  56.05999756
C     8.00000000  10.95000076  55.11000061
C     9.36999989  11.18000031  55.38000107
C    13.52000046  11.71000004  56.18000031
C    14.25000000  11.05999947  55.15999603
C    15.62999916  10.95000076  55.19000244
C     5.55000019  10.98000050  55.87999725
H     5.18713808  11.42824173  54.95505905
H    10.18000031  10.24000072  53.57999802
H    11.39000034  12.35000038  57.97000122
H     8.96000004  12.05999947  58.66000366
H     6.69000053  11.65999985  58.18999863
H     7.63999987  10.69000053  54.10999680
H    16.18999863  10.65999985  54.29999924
H     4.97000027  11.28999901  56.76000214
H     5.42999983   9.89000034  55.83000183
S    17.13000107  12.69000053  52.81000137
C    19.78000069  12.96000004  52.05999756
C    18.50000000  12.57999992  51.70000076
C    18.15999985  12.13000107  50.38000107
C    19.23999977  11.96000004  49.54000092
C    20.58000183  12.28000069  49.86000061
C    21.68999863  11.89000034  49.06000137
C    22.98000145  12.10000038  49.47000122
C    23.21000099  12.76000023  50.70000076
C    22.19000053  13.12000084  51.56000137
C    20.86000061  12.86999893  51.13999939
C    16.72000122  11.95000076  50.31000137
C    16.01000023  12.30000019  51.49000168
C    14.61999989  12.30000019  51.52999878
C    24.63000107  13.14000034  51.04999924
H    25.11946106  12.48029041  51.76645660
H    20.00000000  13.22000027  53.09000015
H    19.01000023  11.57999992  48.54000092
H    21.51000023  11.36000061  48.13000107
H    23.78999901  11.79999924  48.81000137
H    22.42000198  13.42000008  52.57999802
H    14.06999969  12.53999901  52.43999863
H    25.15000153  13.15000057  50.07999802
H    24.54000092  14.14999962  51.49000168
S    13.57999992  11.10000038  47.88000107
C    10.80999947  11.07999992  48.47000122
C    12.10999966  11.35000038  48.83999634
C    12.46999931  11.87000084  50.12000275
C    11.39999962  11.94000053  50.98999786
C    10.03000069  11.68000031  50.70999908
C     9.01000023  11.71000004  51.70000076
C     7.72000027  11.33999920  51.38999939
C     7.40999985  10.90000057  50.07999802
C     8.39999962  10.76000023  49.15000153
C     9.72999954  11.21999931  49.38000107
C    13.89999962  11.98999977  50.37000275
C    14.63000107  11.64999962  49.20999908
C    16.01000023  11.57999992  49.15999985
C     5.98999977  10.70000076  49.58000183
H     5.61185312  11.36354065  48.80229950
H    10.60999966  10.65000057  47.49000168
H    11.54999924  12.06999969  52.05999756
H     9.25000000  12.15000057  52.67000198
H     6.97000027  11.52999973  52.15000153
H     8.26000023  10.29999924  48.16999817
H    16.47999954  11.30000019  48.22000122
H     5.31000042  10.76000023  50.44000244
H     5.82999992   9.72000027  49.12000275
