96

S    16.45000076  12.68000031  58.76999664
C    19.06999969  12.84999943  57.88000107
C    17.79000092  12.38999939  57.64999771
C    17.46999931  11.69999981  56.44000244
C    18.48999977  11.39999962  55.56000137
C    19.81999969  11.84000015  55.72999954
C    20.88999939  11.52999973  54.85000229
C    22.20999908  11.84999943  55.06999969
C    22.39000130  12.71000004  56.18000031
C    21.42999840  12.97999954  57.14000320
C    20.10000038  12.48999977  56.98999786
C    16.02000046  11.59000015  56.35000229
C    15.36000061  12.07999992  57.50999832
C    13.96999931  12.18999958  57.48000336
C    23.77000046  13.25000000  56.46999741
H    24.22554779  12.78733444  57.34550476
H    19.32999992  13.48999977  58.72000122
H    18.19000053  10.81999969  54.68999863
H    20.52999878  10.82999992  54.09999847
H    22.92000008  11.46999931  54.34000015
H    21.61999893  13.43000031  58.09999847
H    13.42000008  12.51999950  58.34999847
H    24.33000183  13.14000034  55.52000046
H    23.78999901  14.32999992  56.63999939
S    12.76999950  10.80999947  53.94000244
C    10.03999901  10.92000008  54.65999985
C    11.36000061  11.18000031  54.94999695
C    11.75000000  11.72999954  56.20999908
C    10.72000027  12.01000023  57.08000183
C     9.36999989  11.59999943  56.93000031
C     8.36999989  11.97000027  57.88000107
C     7.04999971  11.75000000  57.56000137
C     6.67999983  11.13999939  56.33999634
C     7.67000008  10.67999935  55.50000000
C     9.03999996  11.00999928  55.66999817
C    13.20000076  11.75000000  56.38999939
C    13.88000011  11.21999931  55.27000046
C    15.26999950  11.11999989  55.27000046
C     5.23000002  11.14999962  55.89000320
H     5.06569815  11.49289131  54.86846924
H     9.76000023  10.57999992  53.67000198
H    11.00999928  12.51000023  58.00000000
H     8.55000019  12.58999920  58.75000000
H     6.34000015  12.15999985  58.27000046
H     7.37999964  10.21000004  54.55999756
H    15.86999989  10.76000023  54.43999863
H     4.74000025  11.94000053  56.46999741
H     4.76000023  10.19000053  56.11999893
S    13.86999989   9.09000015  51.03000259
C    11.14999962   8.46000004  51.58000183
C    12.48999977   8.36999989  51.88999939
C    12.88000011   7.76999998  53.13000107
C    11.90000057   7.28999996  53.96999741
C    10.52000046   7.34000015  53.67000198
C     9.51000023   6.85999966  54.55999756
C     8.18000031   7.11999989  54.33000183
C     7.78999996   7.72000027  53.09999847
C     8.75000000   8.09000015  52.18000031
C    10.14000034   7.92999983  52.42000198
C    14.32000065   7.82999992  53.34000015
C    14.98000050   8.50000000  52.28000259
C    16.35000038   8.76000023  52.34000397
C     6.30999994   7.79999971  52.84000015
H     6.00450754   6.92614889  52.26453781
H    10.85000038   8.88000011  50.61999893
H    12.17000008   6.90999985  54.95999908
H     9.78999996   6.15999985  55.34000015
H     7.37999964   6.71000004  54.93000031
H     8.43000031   8.56999969  51.25999832
H    16.80999947   9.39000034  51.59000015
H     5.86999989   7.90999985  53.83999634
H     5.98999977   8.73000050  52.34000397
S    17.64000130   7.26999998  55.79000092
C    20.31999969   7.73999977  54.99000168
C    18.96999931   7.85000038  54.77000427
C    18.56999969   8.34999943  53.48999786
C    19.48999977   8.76000023  52.54000092
C    20.86999893   8.50000000  52.70999908
C    21.87000084   8.90999985  51.79000092
C    23.18000031   8.97000027  52.19999695
C    23.61000061   8.56000042  53.48999786
C    22.67999840   7.97999954  54.33000183
C    21.30000114   8.05999947  54.01000214
C    17.12000084   8.30000019  53.40999985
C    16.46999931   7.71000004  54.52999878
C    15.08999920   7.55999994  54.47999954
C    24.90999985   9.09000015  54.06000137
H    25.30826569   8.62772751  54.96321106
H    20.63999939   7.37999964  55.96000290
H    19.27999878   9.26999950  51.59999847
H    21.53000069   9.55999947  50.98999786
H    23.87000084   9.55999947  51.59999847
H    22.93000031   7.57000017  55.31000137
H    14.60000038   7.13000011  55.34999847
H    24.80999947  10.17000008  54.20999908
H    25.66999817   8.89999962  53.29000092
