96

S    16.27000046  12.44999981  58.77999878
C    19.05999947  12.28000069  58.26000214
C    17.76000023  12.03999996  57.90000153
C    17.40999985  11.61999893  56.58000183
C    18.38999939  11.40999985  55.61999893
C    19.75000000  11.61000061  55.94999695
C    20.82999992  11.44000053  55.04000092
C    22.13000107  11.69999981  55.37000275
C    22.43000031  12.23000050  56.65999985
C    21.40999985  12.43999958  57.56000137
C    20.06000137  12.07999992  57.27000427
C    15.97000027  11.54000092  56.35000229
C    15.19999981  12.05999947  57.42000198
C    13.81999969  12.17000008  57.42000198
C    23.84000015  12.71000004  56.90999985
H    24.33063698  12.07715034  57.64950943
H    19.27000046  12.86000061  59.15999985
H    18.11000061  11.13999939  54.61000061
H    20.56999969  11.21999931  54.00000000
H    22.80999947  11.68000031  54.52000046
H    21.57999992  12.94000053  58.50000000
H    13.32999992  12.48999977  58.34000015
H    24.33000183  12.89999962  55.93999863
H    23.68999863  13.68000031  57.39999771
S    12.84999943  10.51000023  53.89999771
C    10.17000008  10.42000008  54.61000061
C    11.44000053  10.85999966  54.91000366
C    11.72000027  11.54999924  56.13999939
C    10.75000000  11.72000027  57.11000061
C     9.47000027  11.18999958  56.86000061
C     8.38999939  11.25000000  57.80000305
C     7.11000013  10.85000038  57.50000000
C     6.86999989  10.29999924  56.22000122
C     7.88000011  10.07999992  55.31000137
C     9.21000004  10.46000004  55.65000153
C    13.15999985  11.68000031  56.29000092
C    13.89000034  11.18999958  55.17000198
C    15.27999973  11.10000038  55.21999741
C     5.50000000   9.76000023  55.86999893
H     5.07324123  10.35035038  55.05915833
H     9.85000038  10.05000019  53.63999939
H    10.93999958  12.10999966  58.11000061
H     8.39999962  11.64999962  58.81000137
H     6.25999975  10.80000019  58.18000031
H     7.75000000   9.63999939  54.33000183
H    15.85999966  10.67000008  54.40999985
H     4.85000038   9.77999973  56.75000000
H     5.52999973   8.76000023  55.40000153
S    13.35000038   8.47999954  51.00999832
C    10.70000076   7.64999962  51.52999878
C    12.03999996   7.62000036  51.84999847
C    12.48999977   7.09000015  53.09999847
C    11.56000042   6.58999968  54.00000000
C    10.17000008   6.65000010  53.73000336
C     9.18000031   6.28999996  54.68999863
C     7.83999968   6.35999966  54.38000107
C     7.44000006   7.00000000  53.18000031
C     8.34999943   7.42999983  52.25000000
C     9.73999977   7.20000029  52.47000122
C    13.90999985   7.28999996  53.34999847
C    14.47999954   8.07999992  52.31999969
C    15.77999973   8.56999969  52.43000031
C     5.97000027   7.16000032  52.85999680
H     5.69317722   6.66313839  51.93016052
H    10.44999981   8.17000008  50.61000061
H    11.85999966   6.42000008  55.02999878
H     9.61000061   5.86000013  55.58000183
H     7.11000013   6.00000000  55.10000229
H     8.01000023   7.94000053  51.35000229
H    16.13000107   9.22999954  51.65000153
H     5.42999983   6.76999998  53.74000168
H     5.66999960   8.21000004  52.97999954
S    17.13999939   6.94000006  55.77999878
C    19.80999947   7.28999996  55.00999832
C    18.47999954   7.53000021  54.77000427
C    18.02999878   8.26000023  53.61999893
C    18.96999931   8.80999947  52.76000214
C    20.34000015   8.65999985  53.04999924
C    21.31000137   9.40999985  52.32999802
C    22.65000153   9.25000000  52.61000061
C    23.12000084   8.31999969  53.57999802
C    22.18000031   7.75000000  54.41999817
C    20.79000092   7.96999979  54.22999954
C    16.59000015   8.17000008  53.50000000
C    15.95999908   7.44000006  54.54999924
C    14.65000057   6.98000002  54.48999786
C    24.60000038   8.14999962  53.81000137
H    24.83398247   8.85903454  54.60411835
H    20.06999969   6.63000011  55.83000183
H    18.63999939   9.43000031  51.93000031
H    20.92000008   9.96999931  51.47999573
H    23.36000061   9.86999989  52.08000183
H    22.40999985   6.98999977  55.14999771
H    14.19000053   6.30000019  55.20000076
H    25.09000015   8.38000011  52.85999680
H    24.72999954   7.07999992  53.96999741
