96

S    16.56999969  12.35999966  58.76999664
C    19.31999969  12.48000050  58.09999847
C    18.04000092  12.10000038  57.81000137
C    17.70000076  11.54000092  56.52999878
C    18.71999931  11.39999962  55.61000061
C    20.03000069  11.87000084  55.86000061
C    21.04999924  11.72000027  54.86999893
C    22.32000160  12.17000008  55.17000198
C    22.63999939  12.74000072  56.43000031
C    21.65999985  12.97999954  57.36000061
C    20.35000038  12.48000050  57.11999893
C    16.27000046  11.56000042  56.29000092
C    15.50000000  11.90999985  57.43000031
C    14.11000061  11.89000034  57.54000092
C    24.11000061  12.97999954  56.70000076
H    24.48064995  12.37413311  57.52682877
H    19.55000114  12.97999954  59.03999710
H    18.54999924  10.75000000  54.75000000
H    20.90999985  11.16000080  53.95999908
H    23.05000114  11.95000076  54.40000153
H    21.93000031  13.56999969  58.23999786
H    13.56999969  12.02000046  58.47000122
H    24.63999939  12.79999924  55.75000000
H    24.33000183  14.04000092  56.83000183
S    13.09000015  10.73999977  53.87000275
C    10.39999962  10.39000034  54.58000183
C    11.64999962  10.86999989  54.88999939
C    11.97000027  11.23999977  56.24000168
C    10.95000076  11.33999920  57.18000031
C     9.61000061  11.07999992  56.83000183
C     8.48999977  11.39000034  57.65999603
C     7.21000004  11.05999947  57.28000259
C     6.93000031  10.52999973  56.00000000
C     8.00000000  10.24000072  55.18000031
C     9.35000038  10.54999924  55.51000214
C    13.38999939  11.50000000  56.39999771
C    14.13000011  11.21000099  55.22999573
C    15.51000023  11.26000023  55.14999771
C     5.51000023  10.14999962  55.65999985
H     5.00009918  10.74488354  54.90222931
H    10.03999901  10.24000072  53.56999969
H    11.11999989  11.90000057  58.09999847
H     8.73999977  11.73999977  58.66000366
H     6.35999966  11.09000015  57.95999908
H     7.92000008   9.71000004  54.23999786
H    16.03999901  10.98999977  54.23999786
H     4.90999985  10.14000034  56.58000183
H     5.52999973   9.13000011  55.26000214
S    17.09000015  12.69000053  52.61000061
C    19.81999969  13.02999973  52.00000000
C    18.59000015  12.46999931  51.69000244
C    18.25000000  11.84000015  50.45999908
C    19.27000046  11.76000023  49.52999878
C    20.56999969  12.25000000  49.81999969
C    21.63000107  12.02000046  48.89999771
C    22.84000015  12.63000011  49.08000183
C    23.09000015  13.38000107  50.27000046
C    22.13000107  13.55999947  51.23000336
C    20.84000015  13.00000000  51.02000427
C    16.80999947  11.72000027  50.25000000
C    16.00000000  12.25000000  51.27999878
C    14.61999989  12.44999981  51.24000168
C    24.54000092  13.75000000  50.54000092
H    24.93743896  13.06867790  51.29229355
H    20.10000038  13.52000046  52.91999817
H    19.04999924  11.36999989  48.54000092
H    21.42999840  11.31000042  48.09999847
H    23.65999985  12.38000011  48.41999817
H    22.39000130  14.06000042  52.15999985
H    14.11000061  12.82999992  52.12999725
H    25.03000069  13.68000031  49.56999969
H    24.61000061  14.78999996  50.86000061
S    13.61999989  11.02000046  47.80000305
C    10.85999966  10.98999977  48.23999786
C    12.13000107  11.18999958  48.74000168
C    12.48000050  11.72000027  50.01999664
C    11.42000008  11.92000008  50.90000153
C    10.08999920  11.64000034  50.52000046
C     9.02999973  11.77000046  51.45999908
C     7.75000000  11.38000011  51.13999939
C     7.46000004  10.93000031  49.82999802
C     8.47999954  10.78999996  48.90999603
C     9.81999969  11.18000031  49.18000031
C    13.89999962  11.98999977  50.13000107
C    14.73000050  11.50000000  49.09000015
C    16.10999870  11.32999992  49.09999847
C     6.02999973  10.57999992  49.51000214
H     5.50980091  11.23559284  48.81165314
H    10.71000004  10.73999977  47.18999863
H    11.59999943  12.35999966  51.86999893
H     9.40999985  12.09000015  52.42000198
H     6.94000006  11.40999985  51.86999893
H     8.25000000  10.47000027  47.88999939
H    16.64999962  10.88999939  48.26000214
H     5.50000000  10.54999924  50.47000122
H     6.06999969   9.52000046  49.20000076
