96

S    16.68000031  11.97000027  58.87000275
C    19.40999985  11.85999966  58.22000122
C    18.09999847  11.56999969  57.88999939
C    17.71000099  11.07999992  56.59999847
C    18.70000076  11.05000019  55.63000107
C    20.06999969  11.26000023  55.91999817
C    21.15999985  11.21000099  55.00999832
C    22.47999954  11.38000011  55.37000275
C    22.73999977  11.80999947  56.70000076
C    21.73999977  12.03999996  57.62000275
C    20.40999985  11.72999954  57.22999954
C    16.26000023  11.07999992  56.45000076
C    15.53999996  11.52999973  57.57999802
C    14.15999985  11.65999985  57.61000061
C    24.11999893  12.35000038  57.00000000
H    24.63860321  11.73904133  57.73883438
H    19.62000084  12.35000038  59.16999817
H    18.46999931  10.88999939  54.58000183
H    20.85000038  10.95999908  53.99000168
H    23.31000137  11.31999969  54.68000031
H    21.97000122  12.34000015  58.63999939
H    13.86000061  11.92999935  58.61000061
H    24.75000000  12.30000019  56.11000061
H    24.03000069  13.42000008  57.22000122
S    13.03999996  10.57000065  54.02000046
C    10.26000023  10.76000023  54.58000183
C    11.56999969  10.95999908  54.94999695
C    11.92999935  11.21000099  56.31000137
C    10.93000031  11.36000061  57.25999832
C     9.56999969  11.23999977  56.88000107
C     8.48999977  11.43000031  57.78999710
C     7.17999983  11.18000031  57.43999863
C     6.86999989  10.80999947  56.10000229
C     7.86000013  10.73999977  55.14999771
C     9.21000004  10.98000050  55.51000214
C    13.36999989  11.33999920  56.50000000
C    14.13000011  11.03000069  55.34000015
C    15.51000023  10.88999939  55.27999878
C     5.51000023  10.18000031  55.89000320
H     4.97587013  10.79246902  55.16358185
H     9.89999962  10.39000034  53.61999893
H    11.10999966  11.68000031  58.27999878
H     8.73000050  11.64999962  58.81999969
H     6.52999973  11.10999966  58.30999756
H     7.71000004  10.27999973  54.18000031
H    15.93999958  10.59999943  54.33000183
H     4.94000006  10.19000053  56.81999969
H     5.63000011   9.15999985  55.51000214
S    13.25000000   8.85000038  51.10000229
C    10.53999996   8.36999989  51.60999680
C    11.85999966   8.10999966  51.90999985
C    12.20999908   7.46000004  53.13999939
C    11.19999981   6.89000034  53.88999939
C     9.84000015   7.09000015  53.56999969
C     8.82999992   6.85999966  54.55999756
C     7.50000000   7.04999971  54.31000137
C     7.14999962   7.63000011  53.06000137
C     8.10000038   8.03999996  52.15000153
C     9.48999977   7.81000042  52.37999725
C    13.66000080   7.44000006  53.29000092
C    14.35999966   8.14999962  52.28000259
C    15.67999935   8.56000042  52.47000122
C     5.68000031   7.85000038  52.80000305
H     5.17489529   7.17415524  52.10992813
H    10.19999981   9.17000008  50.96000290
H    11.36000061   6.48999977  54.88999939
H     9.11999989   6.35999966  55.47999954
H     6.75000000   6.80999994  55.06999969
H     7.88000011   8.64000034  51.26999664
H    16.07999992   9.13000011  51.63999939
H     5.23999977   7.83999968  53.80000305
H     5.58000040   8.85000038  52.36000061
S    16.82999992   6.63999987  55.70999908
C    19.56999969   7.20000029  55.22999573
C    18.23999977   7.40999985  54.94999695
C    17.89999962   8.10999966  53.75000000
C    18.86000061   8.47000027  52.81999969
C    20.22000122   8.26000023  53.15000153
C    21.21000099   8.76000023  52.25000000
C    22.53999901   8.64000034  52.55000305
C    22.93000031   7.90000010  53.69999695
C    22.01000023   7.44000006  54.61000061
C    20.62000084   7.63000011  54.38000107
C    16.46000099   8.05000019  53.52000427
C    15.76000023   7.20000029  54.40999985
C    14.40000057   6.90999985  54.34000015
C    24.37999916   7.51999950  53.95000076
H    24.75673676   7.83276320  54.92383194
H    19.96999931   6.65000010  56.06999969
H    18.52000046   8.94999981  51.90999985
H    20.92000008   9.22000027  51.31000137
H    23.25000000   8.92000008  51.77000046
H    22.26000023   6.88000011  55.51000214
H    13.89999962   6.19999981  55.00000000
H    25.06999969   7.88000011  53.18000031
H    24.44000053   6.42000008  54.00000000
