96

S    16.59000015  11.98999977  58.90999603
C    19.23999977  12.61000061  58.16999817
C    17.97000122  12.20000076  57.81999969
C    17.71000099  11.77000046  56.47999573
C    18.75000000  11.64000034  55.56999969
C    20.07999802  11.90000057  55.96000290
C    21.09999847  11.71000004  54.99000168
C    22.39999962  11.89000034  55.38999939
C    22.65000153  12.56999969  56.60999680
C    21.67000008  12.77999973  57.56000137
C    20.34000015  12.35000038  57.30999756
C    16.28000069  11.57999992  56.30000305
C    15.52999973  11.75000000  57.50000000
C    14.14999962  11.77999973  57.63999939
C    24.11000061  12.75000000  56.97000122
H    24.53046227  12.09436512  57.73253250
H    19.37999916  13.05999947  59.13999939
H    18.53999901  11.32999992  54.54999924
H    20.78000069  11.21999931  54.06999969
H    23.26000023  11.56000042  54.81999969
H    21.87000084  13.21000004  58.53000259
H    13.61999989  12.02000046  58.55999756
H    24.70999908  12.81000042  56.04999924
H    24.20999908  13.76000023  57.39999771
S    13.07000065  11.36000061  53.82999802
C    10.53999996  10.52000046  54.54999924
C    11.72999954  11.05999947  54.95999908
C    12.00000000  11.40999985  56.31999969
C    10.93999958  11.39000034  57.21000290
C     9.64999962  11.05000019  56.73999786
C     8.60000038  11.03999996  57.70000076
C     7.35000038  10.57000065  57.36000061
C     7.09000015  10.18000031  56.02000427
C     8.09000015  10.14000034  55.06999969
C     9.40999985  10.57000065  55.40000153
C    13.43999958  11.59000015  56.45000076
C    14.14999962  11.39999962  55.24000168
C    15.52999973  11.31000042  55.14999771
C     5.73000002   9.71000004  55.56999969
H     5.13921022  10.42179489  54.99344635
H    10.47999954  10.15999985  53.52000427
H    11.14999962  11.36000061  58.27000046
H     8.76999950  11.39000034  58.72000122
H     6.48999977  10.50000000  58.01000214
H     7.79999971   9.88000011  54.06000137
H    15.93999958  11.10999966  54.15999985
H     5.36000013   9.46000004  56.56999969
H     5.75999975   8.76000023  55.02999878
S    16.92000008  13.07999992  52.63000107
C    19.63999939  12.84000015  52.11999893
C    18.35000038  12.64999962  51.66999817
C    18.06999969  12.07999992  50.38999939
C    19.12999916  11.78999996  49.54999924
C    20.43000031  12.22000027  49.91000366
C    21.59000015  11.90999985  49.13999939
C    22.88000107  12.18999958  49.50000000
C    23.09000015  12.89000034  50.70999908
C    22.06999969  12.97999954  51.63000107
C    20.75000000  12.57999992  51.26999664
C    16.62999916  12.02000046  50.17000198
C    15.92000008  12.60000038  51.25000000
C    14.53999996  12.79999924  51.20999908
C    24.46000099  13.45999908  50.98999786
H    24.92094994  12.93522453  51.82680130
H    19.76000023  13.48000050  52.98999786
H    19.09000015  11.19999981  48.63999939
H    21.42000008  11.26000023  48.27999878
H    23.68000031  11.80999947  48.86000061
H    22.13999939  13.61999989  52.50000000
H    13.94000053  13.15000057  52.04000092
H    25.10999870  13.50999928  50.11000061
H    24.31999969  14.51000023  51.27999878
S    13.55999947  11.28000069  47.60000229
C    10.85000038  11.21999931  48.34000015
C    12.15000057  11.57999992  48.62999725
C    12.46999931  12.11999989  49.92000198
C    11.47999954  12.28000069  50.87999725
C    10.17000008  11.80999947  50.63000107
C     9.15000057  11.84000015  51.62000275
C     7.86000013  11.40999985  51.38000107
C     7.50000000  10.93999958  50.08999634
C     8.48999977  10.88000107  49.13999939
C     9.85000038  11.26999950  49.34000015
C    13.89000034  12.38999939  50.04000092
C    14.59000015  11.89000034  48.90999603
C    15.97000027  11.72999954  48.96999741
C     6.07999992  10.50000000  49.82999802
H     5.57521725  11.21096134  49.17591095
H    10.64000034  10.77999973  47.36999893
H    11.59000015  12.71000004  51.86999893
H     9.51000023  12.10000038  52.61000061
H     7.13000011  11.23000050  52.15999985
H     8.19000053  10.55999947  48.13999939
H    16.42000008  11.43000031  48.02000046
H     5.55999994  10.43000031  50.79999924
H     6.14000034   9.48999977  49.40000153
