96

S    16.72999954  11.84000015  58.80000305
C    19.42000008  11.90000057  58.04999924
C    18.11000061  11.65999985  57.70000076
C    17.69000053  11.31999969  56.37000275
C    18.70000076  11.21999931  55.43000031
C    20.03999901  11.57999992  55.70000076
C    21.11999893  11.59000015  54.78000259
C    22.39000130  11.97000027  55.13999939
C    22.72000122  12.27000046  56.49000168
C    21.71999931  12.32999992  57.43999863
C    20.42000008  11.90000057  57.04999924
C    16.23999977  11.32999992  56.27999878
C    15.55999947  11.56000042  57.50000000
C    14.19000053  11.80999947  57.61000061
C    24.17000008  12.43999958  56.88999939
H    24.46099281  12.04254532  57.86234283
H    19.64999962  12.36999989  59.01000214
H    18.45999908  10.76000023  54.47000122
H    20.95999908  11.05000019  53.85000229
H    23.16999817  11.92999935  54.38000107
H    21.90000153  12.60000038  58.47999954
H    13.71999931  11.92999935  58.57999802
H    24.80999947  12.09000015  56.06999969
H    24.44999886  13.50000000  56.88999939
S    13.02999973  10.95999908  53.88000107
C    10.34999943  10.76000023  54.50000000
C    11.61999893  11.05000019  54.94999695
C    11.98999977  11.36999989  56.30000305
C    10.97000027  11.42000008  57.22999954
C     9.63999939  11.16000080  56.81999969
C     8.56999969  11.18000031  57.76000214
C     7.35000038  10.70000076  57.36000061
C     6.98999977  10.47000027  56.00999832
C     7.99000025  10.47999954  55.06000137
C     9.30999947  10.78999996  55.45999908
C    13.43000031  11.54000092  56.46999741
C    14.11000061  11.35000038  55.24000168
C    15.47999954  11.17000008  55.12000275
C     5.59000015  10.03999901  55.63999939
H     5.04045057  10.75370026  55.02621841
H    10.11000061  10.46000004  53.47999954
H    11.18000031  11.59999943  58.27999878
H     8.71999931  11.39000034  58.81000137
H     6.67999983  10.47000027  58.18999863
H     7.69999981  10.26999950  54.02999878
H    15.88000107  10.71000004  54.22000122
H     4.94999981   9.86999989  56.52000046
H     5.72000027   9.06999969  55.13999939
S    16.80999947  12.79999924  52.43000031
C    19.52999878  12.57999992  51.86999893
C    18.23999977  12.28000069  51.51000214
C    17.94999886  11.78999996  50.20000076
C    18.97999954  11.54999924  49.29999924
C    20.26000023  12.07999992  49.55999756
C    21.27000046  11.94000053  48.55999756
C    22.55000114  12.36999989  48.85000229
C    22.86999893  12.82999992  50.14999771
C    21.91999817  12.81999969  51.14999771
C    20.56999969  12.46000099  50.90999985
C    16.52000046  11.87000084  49.93000031
C    15.78999996  12.31999969  51.05999756
C    14.40000057  12.41000080  51.04000092
C    24.27000046  13.38999939  50.30000305
H    24.88967133  12.74183750  50.91967392
H    19.76000023  13.17999935  52.74000168
H    18.78999901  11.31999969  48.25000000
H    21.09000015  11.56000042  47.56000137
H    23.28000069  12.18999958  48.06999969
H    22.20000076  13.26000023  52.09999847
H    13.82999992  12.81999969  51.86000061
H    24.65999985  13.50999928  49.27999878
H    24.11999893  14.42999935  50.61999893
S    13.38999939  11.13000011  47.43000031
C    10.70000076  10.85999966  48.25000000
C    11.95000076  11.42000008  48.41999817
C    12.28999996  11.95000076  49.69999695
C    11.39000034  12.10999966  50.73999786
C    10.05000019  11.69999981  50.54000092
C     9.02000046  12.03999996  51.45999908
C     7.72000027  11.78999996  51.09000397
C     7.40999985  11.06999969  49.89999771
C     8.39999962  10.70000076  49.02000046
C     9.75000000  11.09000015  49.27000046
C    13.73999977  12.05999947  49.85000229
C    14.47999954  11.72999954  48.68999863
C    15.85000038  11.50000000  48.75999832
C     5.98999977  10.65999985  49.58000183
H     5.48907709  11.30404377  48.85723877
H    10.47999954  10.29999924  47.34000397
H    11.64000034  12.51000023  51.72000122
H     9.26999950  12.43000031  52.43999863
H     6.98000002  12.18999958  51.77999878
H     8.18000031  10.08999920  48.15999985
H    16.45000076  11.18000031  47.91999817
H     5.45000029  10.75000000  50.52999878
H     6.11000013   9.63000011  49.20999908
