96

S    16.62999916  12.44999981  58.95999908
C    19.34000015  12.57999992  58.29999924
C    18.06999969  12.15000057  57.97000122
C    17.70000076  11.64999962  56.68000031
C    18.73999977  11.54000092  55.77000046
C    20.09000015  11.82999992  56.07999802
C    21.11999893  11.72000027  55.10000229
C    22.40999985  12.13999939  55.34999847
C    22.67999840  12.67000008  56.63999939
C    21.73000145  12.81000042  57.62000275
C    20.39999962  12.36999989  57.37999725
C    16.27000046  11.44999981  56.56000137
C    15.52999973  12.00000000  57.63999939
C    14.14000034  12.00000000  57.61000061
C    24.07999992  13.12000084  57.02000046
H    24.46545601  12.55609226  57.86943054
H    19.54000092  12.97999954  59.27999878
H    18.46999931  11.07999992  54.81999969
H    20.76000023  11.33999920  54.15000153
H    23.21000099  12.07999992  54.62999725
H    22.06000137  13.25000000  58.54999924
H    13.66000080  12.30999947  58.54000092
H    24.73999977  13.09000015  56.13999939
H    24.01000023  14.19000053  57.25999832
S    13.15000057  10.67999935  54.02999878
C    10.48999977  10.29999924  54.68000031
C    11.71000004  10.82999992  55.06000137
C    12.00000000  11.44000053  56.31999969
C    10.93000031  11.65999985  57.15999985
C     9.61999989  11.33999920  56.73999786
C     8.52000046  11.68000031  57.56999969
C     7.21000004  11.32999992  57.31999969
C     6.98000002  10.55999947  56.13999939
C     8.01999950  10.25000000  55.30000305
C     9.39000034  10.57999992  55.52999878
C    13.43000031  11.61999893  56.46999741
C    14.21000004  11.16000080  55.37000275
C    15.59999943  11.10999966  55.38000107
C     5.58000040  10.05000019  55.90999985
H     5.15899849  10.59944248  55.06799698
H    10.25000000   9.70000076  53.81000137
H    11.13999939  12.02999973  58.15999985
H     8.73000050  12.28999996  58.44999695
H     6.46000004  11.40999985  58.09000015
H     7.83999968   9.61999989  54.43000031
H    16.07999992  10.81999969  54.45000076
H     4.94999981  10.15999985  56.81000137
H     5.69000006   8.97999954  55.68000031
S    13.09000015   8.52999973  51.16000366
C    10.39999962   7.90000010  51.77000046
C    11.73999977   7.88000011  52.09999847
C    12.23999977   7.30999994  53.31999969
C    11.28000069   6.85999966  54.20000076
C     9.89999962   6.80999994  53.88999939
C     8.97000027   6.30999994  54.85000229
C     7.64999962   6.25000000  54.47000122
C     7.13999987   6.78999996  53.26000214
C     8.03999996   7.39000034  52.39999771
C     9.44000053   7.28999996  52.61000061
C    13.68999958   7.42000008  53.47999954
C    14.29999924   8.07999992  52.38999939
C    15.55999947   8.67000008  52.44999695
C     5.65000010   6.81999969  53.02999878
H     5.33685017   7.27549076  52.09054947
H    10.01000023   8.55000019  51.00000000
H    11.59999943   6.75000000  55.22999573
H     9.40999985   6.19000006  55.83000183
H     6.96000004   5.92999983  55.24000168
H     7.67000008   7.82000017  51.47999573
H    15.93000031   9.25000000  51.60999680
H     5.28999996   5.79999971  53.20999908
H     5.29999971   7.53999996  53.79000092
S    17.09000015   6.90000010  55.70000076
C    19.67000008   7.63999987  55.02999878
C    18.32999992   7.76000023  54.75999832
C    17.77000046   8.48999977  53.67000198
C    18.61999893   9.09000015  52.76000214
C    20.00000000   9.06999969  53.04999924
C    20.93000031   9.63000011  52.11999893
C    22.29000092   9.55999947  52.25000000
C    22.82999992   8.94999981  53.41999817
C    21.97000122   8.27999973  54.26000214
C    20.55000114   8.36000061  54.18000031
C    16.32999992   8.30000019  53.54999924
C    15.81999969   7.50999975  54.61000061
C    14.52000046   7.02000046  54.52999878
C    24.33000183   8.89000034  53.60000229
H    24.68487930   8.59190273  54.58656311
H    20.00000000   6.97000027  55.80999756
H    18.34000015   9.61999989  51.84999847
H    20.55000114  10.08999920  51.22000122
H    22.92000008   9.90999985  51.44000244
H    22.39999962   7.63999987  55.01999664
H    14.11000061   6.35999966  55.27999878
H    24.63999939   9.92999935  53.44999695
H    24.94999886   8.32999992  52.88999939
