96

S    16.60000038  12.75000000  58.52000427
C    19.30999947  12.50000000  58.00000000
C    18.02000046  12.30000019  57.56000137
C    17.59000015  11.73999977  56.31999969
C    18.61999893  11.44999981  55.44000244
C    19.96999931  11.71000004  55.79000092
C    21.04000092  11.51000023  54.87999725
C    22.32999992  11.77999973  55.28999710
C    22.70000076  12.41000080  56.51000214
C    21.68000031  12.61999989  57.42000198
C    20.35000038  12.25999928  57.05999756
C    16.13999939  11.64999962  56.25999832
C    15.39999962  12.22000027  57.32999802
C    14.01999950  12.28000069  57.41000366
C    24.11000061  12.86000061  56.81000137
H    24.48064804  12.25413418  57.63682938
H    19.55999947  13.07000065  58.88999939
H    18.39999962  11.03999996  54.45000076
H    20.81999969  11.10999966  53.88999939
H    23.18000031  11.61000061  54.64000320
H    21.81999969  13.02999973  58.40999985
H    13.40999985  12.67000008  58.22999954
H    24.70000076  12.64000034  55.91999817
H    24.10000038  13.94999981  56.97999954
S    12.94999981  10.59999943  54.06999969
C    10.24000072  10.44999981  54.65999985
C    11.47999954  10.92000008  55.00999832
C    11.80999947  11.56999969  56.24000168
C    10.75000000  11.78999996  57.09999847
C     9.43000031  11.36999989  56.79999924
C     8.38000011  11.61000061  57.72999573
C     7.11000013  11.16000080  57.48000336
C     6.81999969  10.60999966  56.19999695
C     7.82000017  10.31999969  55.30000305
C     9.17000008  10.65999985  55.58000183
C    13.25000000  11.75000000  56.37000275
C    14.04000092  11.28999901  55.28999710
C    15.42000008  11.14999962  55.17000198
C     5.38000011  10.29000092  55.86000061
H     5.01561403  10.69725418  54.91688538
H    10.18000031   9.94999981  53.69999695
H    10.90999985  12.30999947  58.04000092
H     8.63000011  12.02000046  58.70999908
H     6.38999987  11.13999939  58.29000092
H     7.68000031   9.92000008  54.29000092
H    15.95000076  10.71000004  54.34000015
H     4.77999973  10.73999977  56.65999985
H     5.21000004   9.21000004  55.98999786
S    16.87999916  12.86999893  52.67000198
C    19.63000107  12.79999924  52.16999817
C    18.36000061  12.53000069  51.75000000
C    18.00000000  12.05000019  50.44000244
C    19.06999969  11.90999985  49.56999969
C    20.40999985  12.17000008  49.95999908
C    21.50000000  12.06999969  49.06000137
C    22.76000023  12.51999950  49.38000107
C    23.02999878  13.12000084  50.63999939
C    22.04000092  13.07000065  51.59000015
C    20.72000122  12.64000034  51.27999878
C    16.57999992  11.84999943  50.20999908
C    15.85999966  12.30999947  51.32999802
C    14.47000027  12.38999939  51.33999634
C    24.27999878  13.93000031  50.89000320
H    24.94893074  13.31088257  51.48777008
H    19.73999977  13.36999989  53.09999847
H    18.82999992  11.51999950  48.57999802
H    21.35000038  11.72999954  48.04000092
H    23.46999931  12.53000069  48.55999756
H    22.25000000  13.42000008  52.60000229
H    14.06000042  12.57999992  52.32999802
H    24.77999878  14.32000065  49.99000168
H    24.13000107  14.81999969  51.50000000
S    13.43999958  11.21999931  47.70999908
C    10.71000004  11.03000069  48.34000015
C    11.97999954  11.40999985  48.70999908
C    12.28999996  11.87999916  50.01999664
C    11.30000019  12.02000046  50.97999954
C     9.98000050  11.68000031  50.61000061
C     8.93000031  11.73999977  51.56999969
C     7.63000011  11.50000000  51.19999695
C     7.30999994  11.21999931  49.84000397
C     8.30000019  11.16000080  48.88999939
C     9.67000008  11.28000069  49.27000046
C    13.71000099  12.15999985  50.19000244
C    14.47000027  11.77000046  49.05000305
C    15.85000038  11.63000011  49.02999878
C     5.88000011  10.86999989  49.47999954
H     5.45328665  11.48873425  48.69057846
H    10.48999977  10.72999954  47.31999969
H    11.56000042  12.46999931  51.93999863
H     9.19000053  12.13999939  52.55000305
H     6.94999981  11.39999962  52.04000092
H     8.01999950  10.95999908  47.85999680
H    16.40999985  11.56000042  48.09999847
H     5.26000023  10.90000057  50.38000107
H     5.92999983   9.85999966  49.03999710
