96

S    17.43999863  12.07999992  58.87000275
C    20.15000153  12.39999962  58.13000107
C    18.85000038  12.10000038  57.80000305
C    18.50000000  11.92000008  56.43000031
C    19.40999985  12.00000000  55.38999939
C    20.75000000  12.31999969  55.72999954
C    21.81999969  12.20999908  54.79999924
C    23.13999939  12.35000038  55.14999771
C    23.51000023  12.75000000  56.45999908
C    22.50000000  12.68000031  57.39999771
C    21.12999916  12.48000050  57.09999847
C    17.11000061  11.51999950  56.24000168
C    16.42000008  11.67000008  57.48000336
C    15.03999901  11.72000027  57.56999969
C    24.92000198  13.04999924  56.90999985
H    25.22549438  12.47453594  57.78385162
H    20.36999893  12.69999981  59.15000153
H    19.22000122  11.77000046  54.34000015
H    21.52000046  12.03999996  53.76999664
H    23.82999802  12.46999931  54.31000137
H    22.56999969  12.86999893  58.47000122
H    14.57999992  12.17000008  58.43999863
H    25.59000015  12.93000031  56.04999924
H    25.10000038  14.07999992  57.25000000
S    13.86000061  10.97000027  53.81999969
C    11.13000011  10.93000031  54.58000183
C    12.43999958  11.21999931  54.86000061
C    12.86999893  11.65999985  56.16000366
C    11.87999916  11.82999992  57.11000061
C    10.51000023  11.63000011  56.81000137
C     9.57999992  11.46999931  57.87000275
C     8.30999947  10.98000050  57.67000198
C     7.85000038  10.71000004  56.36000061
C     8.75000000  10.69000053  55.31999969
C    10.08999920  11.14999962  55.52000046
C    14.28999996  11.50000000  56.39999771
C    14.96999931  11.25000000  55.18000031
C    16.36000061  11.19999981  55.11000061
C     6.38000011  10.44000053  56.13999939
H     5.96068430  10.58924866  55.14501190
H    10.88000107  10.72000027  53.54000092
H    12.09000015  11.76000023  58.16999817
H     9.92000008  11.59000015  58.89999771
H     7.72000027  10.88999939  58.57999802
H     8.60999966  10.39000034  54.27999878
H    16.92000008  10.93999958  54.22000122
H     5.92999983  11.03999996  56.93999863
H     6.21000004   9.39999962  56.42000198
S    16.95999908  12.98999977  52.52999878
C    19.67000008  13.02999973  51.84000015
C    18.37000084  12.75000000  51.49000168
C    18.05999947  12.35000038  50.14999771
C    19.06999969  11.97000027  49.27999878
C    20.42000008  12.28999996  49.55999756
C    21.45999908  12.25999928  48.59000397
C    22.76000023  12.53999901  48.94000244
C    23.05000114  13.05999947  50.22999573
C    22.04000092  13.12999916  51.17000198
C    20.69999886  12.76000023  50.89000320
C    16.61999893  12.28000069  49.95999908
C    15.93000031  12.71999931  51.11000061
C    14.53999996  12.79000092  51.18000031
C    24.38999939  13.67000008  50.56999969
H    24.94049263  13.02656555  51.25632858
H    19.88999939  13.42000008  52.83000183
H    18.82999992  11.52999973  48.31999969
H    21.25999832  11.87000084  47.60000229
H    23.54999924  12.55000019  48.20000076
H    22.34000015  13.40999985  52.18000031
H    14.07999992  13.15999985  52.09999847
H    24.90999985  13.83999920  49.61000061
H    24.10000038  14.53999996  51.17000198
S    13.30000019  11.63000011  47.64999771
C    10.64000034  11.28999901  48.46000290
C    11.92999935  11.61999893  48.77999878
C    12.35000038  12.11999989  50.06000137
C    11.36999989  12.25000000  51.03000259
C    10.03999901  11.82999992  50.79000092
C     9.02000046  11.97999954  51.77000046
C     7.73999977  11.64999962  51.40999603
C     7.37999964  11.10000038  50.14999771
C     8.34000015  10.93000031  49.18000031
C     9.67000008  11.31999969  49.48999786
C    13.78999901  12.31999969  50.10000229
C    14.48999977  11.87999916  48.95000076
C    15.88000107  11.80999947  48.87000275
C     6.01000023  10.59000015  49.75999832
H     5.61884594  11.22295856  48.96346664
H    10.47999954  10.82999992  47.49000168
H    11.72999954  12.48000050  52.02999878
H     9.26999950  12.31999969  52.77000046
H     6.96000004  11.61999893  52.18000031
H     8.01000023  10.53999996  48.22000122
H    16.20000076  11.44999981  47.88999939
H     5.36999989  10.71000004  50.63999939
H     5.98999977   9.50000000  49.65999985
