96

S    16.77000046  12.84999943  58.70999908
C    19.43000031  12.88000011  57.93000031
C    18.15999985  12.41000080  57.70000076
C    17.77000046  11.84999943  56.44000244
C    18.73999977  11.59000015  55.48999786
C    20.09000015  11.94000053  55.77999878
C    21.15999985  11.59000015  54.89999771
C    22.43999863  12.03999996  55.11000061
C    22.78000069  12.79000092  56.25999832
C    21.75000000  13.21000004  57.08000183
C    20.45000076  12.65999985  56.97000122
C    16.32999992  11.92999935  56.29000092
C    15.62999916  12.46000099  57.41000366
C    14.25000000  12.56000042  57.49000168
C    24.18999863  13.22999954  56.59999847
H    24.74323273  12.47107601  57.15323257
H    19.63000107  13.53000069  58.77999878
H    18.48999977  10.92000008  54.68000031
H    20.88999939  10.97000027  54.05000305
H    23.15999985  11.80999947  54.31999969
H    21.97000122  13.96000004  57.84000015
H    13.73000050  12.84999943  58.40999985
H    24.72999954  13.47000027  55.66999817
H    24.14999962  14.19999981  57.09000015
S    13.15999985  11.40999985  53.81000137
C    10.47000027  11.33999920  54.52999878
C    11.77999973  11.51999950  54.92000198
C    12.11999989  11.97000027  56.23000336
C    11.10000038  12.06999969  57.15999985
C     9.76000023  11.72000027  56.88999939
C     8.75000000  11.75000000  57.88999939
C     7.44999981  11.56999969  57.48000336
C     7.11999989  11.10000038  56.18000031
C     8.11999989  11.00999928  55.24000168
C     9.46000004  11.39999962  55.52000046
C    13.55999947  12.17000008  56.33999634
C    14.25000000  11.78999996  55.15999603
C    15.62999916  11.59999943  55.12000275
C     5.69000006  10.73999977  55.84999847
H     5.25650692  11.45775127  55.15356827
H    10.29000092  10.88999939  53.55999756
H    11.18999958  12.46999931  58.16999817
H     8.98999977  12.15999985  58.87000275
H     6.69000053  12.10999966  58.02999878
H     7.85000038  10.80000019  54.20999908
H    16.03999901  11.10000038  54.25000000
H     5.07000017  10.78999996  56.76000214
H     5.66999960   9.75000000  55.38999939
S    17.20999908  13.17000008  52.52999878
C    19.90999985  13.21000004  51.86999893
C    18.63000107  12.89999962  51.49000168
C    18.27999878  12.42000008  50.19000244
C    19.29000092  12.30999947  49.25000000
C    20.65000153  12.48999977  49.59999847
C    21.71999931  12.28999996  48.68000031
C    22.98999977  12.57999992  49.10999680
C    23.26000023  13.04999924  50.41999817
C    22.25000000  13.34000015  51.31000137
C    20.94000053  12.94000053  50.93000031
C    16.82999992  12.34000015  50.04000092
C    16.11999893  12.71000004  51.19999695
C    14.73999977  12.82999992  51.25000000
C    24.65999985  13.56999969  50.68999863
H    25.18638039  12.95826054  51.42266464
H    20.20999908  13.68000031  52.80000305
H    18.98999977  12.23000050  48.20999908
H    21.65999985  12.10999966  47.61000061
H    23.81000137  12.48000050  48.40000153
H    22.46999931  13.81999969  52.27000427
H    14.17000008  13.22999954  52.09000015
H    25.19000053  13.48999977  49.72999954
H    24.56999969  14.63999939  50.87999725
S    13.61999989  11.40999985  47.68000031
C    10.95000076  11.40999985  48.30999756
C    12.22000027  11.77999973  48.69999695
C    12.56000042  12.30000019  49.98000336
C    11.57999992  12.38999939  50.94999695
C    10.24000072  12.17000008  50.56000137
C     9.23999977  12.42000008  51.55000305
C     7.90999985  12.17000008  51.29000092
C     7.62000036  11.56000042  50.05000305
C     8.56999969  11.23999977  49.10999680
C     9.92999935  11.61999893  49.27000046
C    14.01000023  12.42000008  50.13000107
C    14.68999958  12.07999992  48.93000031
C    16.07999992  12.05999947  48.88999939
C     6.17999983  11.21999931  49.71000290
H     5.84462643  11.68381500  48.78237152
H    10.71000004  11.00000000  47.32999802
H    11.77000046  12.71999931  51.97000122
H     9.46000004  12.76999950  52.56000137
H     7.22000027  12.30999947  52.11000061
H     8.30999947  10.70000076  48.20000076
H    16.55999947  11.71000004  47.98999786
H     5.52999973  11.51000023  50.54000092
H     6.11999989  10.14000034  49.54000092
