96

S    16.94000053  12.25999928  58.68999863
C    19.64999962  12.10999966  58.11000061
C    18.36000061  11.80999947  57.71999741
C    18.02000046  11.28999901  56.43000031
C    19.05999947  10.93999958  55.59000015
C    20.40999985  11.23999977  55.90999985
C    21.54999924  11.03999996  55.06999969
C    22.82999992  11.13999939  55.56000137
C    23.12999916  11.72000027  56.81999969
C    22.04000092  12.05000019  57.58999634
C    20.69000053  11.78999996  57.19999695
C    16.57999992  11.36999989  56.23000336
C    15.85000038  11.87000084  57.34000397
C    14.47000027  11.98999977  57.27000427
C    24.47000122  12.34000015  57.18000031
H    25.08252335  11.69186592  57.80677032
H    19.92000008  12.56999969  59.05000305
H    18.85000038  10.52000046  54.61000061
H    21.28999901  10.60999966  54.10999680
H    23.62999916  10.93999958  54.86000061
H    22.20000076  12.64000034  58.47999954
H    13.97999954  12.43999958  58.13000107
H    25.03999901  12.55000019  56.26999664
H    24.23999977  13.34000015  57.56000137
S    13.30999947  10.31999969  53.88999939
C    10.52999973  10.50000000  54.54000092
C    11.85999966  10.73999977  54.81999969
C    12.27000046  11.35000038  56.04999924
C    11.32999992  11.65999985  57.02000046
C     9.94999981  11.44999981  56.75000000
C     9.00000000  11.75000000  57.77000046
C     7.67000008  11.59999943  57.44999695
C     7.25000000  11.03999996  56.22000122
C     8.17000008  10.57999992  55.30000305
C     9.55999947  10.85000038  55.51000214
C    13.71000099  11.44000053  56.23000336
C    14.42999935  10.92000008  55.13000107
C    15.81999969  10.90000057  55.14999771
C     5.78999996  10.73999977  55.97999954
H     5.31519794  11.30692863  55.17921448
H    10.22999954   9.98999977  53.61999893
H    11.64000034  12.05000019  57.97999954
H     9.48999977  12.10000038  58.67000198
H     6.88000011  11.87000084  58.13999939
H     7.96000004  10.03999901  54.38999939
H    16.38000107  10.39000034  54.36999893
H     5.23000002  11.00999928  56.88999939
H     5.59000015   9.67000008  55.84999847
S    16.97999954  12.46999931  52.90999985
C    19.71999931  12.44999981  52.28000259
C    18.42000008  12.18000031  51.91999817
C    18.09000015  11.76000023  50.59000015
C    19.11999893  11.59999943  49.68000031
C    20.46999931  11.85999966  50.01999664
C    21.53000069  11.79999924  49.06999969
C    22.78000069  12.25999928  49.41999817
C    23.09000015  12.77999973  50.70999908
C    22.06999969  12.84000015  51.63000107
C    20.76000023  12.38000011  51.31999969
C    16.64999962  11.56999969  50.43000031
C    15.92000008  12.02000046  51.56000137
C    14.53999996  12.18000031  51.58000183
C    24.54000092  13.10999966  50.97000122
H    24.83099365  12.57059669  51.87137222
H    19.88000107  12.64000034  53.34000015
H    18.86999893  11.17000008  48.70999908
H    21.30000114  11.51999950  48.04999924
H    23.57999992  12.11999989  48.69999695
H    22.20000076  13.17999935  52.65999603
H    14.00000000  12.51000023  52.45999908
H    25.22000122  12.94000053  50.12000275
H    24.60000038  14.14999962  51.31000137
S    13.45999908  10.98999977  47.95999908
C    10.75000000  11.02000046  48.50000000
C    12.01000023  11.40999985  48.88999939
C    12.38000011  11.82999992  50.20000076
C    11.32999992  12.00000000  51.09000397
C     9.98999977  11.73999977  50.72999954
C     8.97999954  11.82000065  51.73999786
C     7.69999981  11.40999985  51.46999741
C     7.40999985  10.88999939  50.18000031
C     8.34000015  10.81999969  49.16999817
C     9.68000031  11.23000050  49.41999817
C    13.81000042  11.80999947  50.43000031
C    14.53999996  11.26000023  49.34999847
C    15.93000031  11.14999962  49.31000137
C     5.95000029  10.60999966  49.86999893
H     5.67375660  11.14832115  48.96335602
H    10.55999947  10.47000027  47.57999802
H    11.54000092  12.22000027  52.14000320
H     9.30999947  12.18000031  52.70999908
H     6.89000034  11.46000004  52.18999863
H     8.06999969  10.54999924  48.15999985
H    16.39999962  10.80000019  48.40000153
H     5.26000023  10.72000027  50.70999908
H     5.88999987   9.55000019  49.59000015
