96

S    16.64999962  12.51999950  58.77999878
C    19.34999847  12.58999920  58.18000031
C    18.09000015  12.18999958  57.80000305
C    17.76000023  11.51000023  56.58000183
C    18.82999992  11.11999989  55.80999756
C    20.13999939  11.61000061  56.03000259
C    21.19999886  11.39000034  55.10000229
C    22.50000000  11.63000011  55.47000122
C    22.77000046  12.23999977  56.72999954
C    21.77000046  12.46999931  57.63999939
C    20.40999985  12.20999908  57.30999756
C    16.31999969  11.36999989  56.39999771
C    15.59000015  11.92999935  57.49000168
C    14.19999981  11.94000053  57.45999908
C    24.21999931  12.50000000  57.09999847
H    24.70358658  11.84573460  57.82538223
H    19.52999878  13.15000057  59.09000015
H    18.61999893  10.69000053  54.82999802
H    21.01000023  10.85999966  54.18000031
H    23.28000069  11.39000034  54.75999832
H    22.01000023  12.92000008  58.60000229
H    13.69999981  12.13999939  58.40999985
H    24.82000160  12.55000019  56.18000031
H    24.25000000  13.50000000  57.55000305
S    13.19000053  10.69000053  53.87000275
C    10.44000053  10.72000027  54.45999908
C    11.72999954  11.03000069  54.82999802
C    12.06999969  11.38000011  56.17000198
C    11.11999989  11.68000031  57.12999725
C     9.77999973  11.46999931  56.72999954
C     8.80000019  11.59999943  57.75000000
C     7.49000025  11.26000023  57.50000000
C     7.11999989  10.80000019  56.20999908
C     8.07999992  10.54999924  55.25000000
C     9.43000031  10.95000076  55.44000244
C    13.52000046  11.46999931  56.33999634
C    14.27000046  11.00000000  55.22999573
C    15.65000057  10.81999969  55.31000137
C     5.66999960  10.40999985  56.02000427
H     5.20614576  10.98803234  55.22074509
H    10.10000038  10.48999977  53.46000290
H    11.31999969  11.97000027  58.15999985
H     9.11999989  11.85999966  58.75999832
H     6.78999996  11.28999901  58.33000183
H     7.79999971  10.26000023  54.23999786
H    16.17000008  10.39000034  54.45999908
H     5.13999987  10.67000008  56.93999863
H     5.64000034   9.34000015  55.73999786
S    17.02999878  12.60000038  52.70000076
C    19.68000031  12.43000031  52.04999924
C    18.38999939  12.13000107  51.66999817
C    18.02999878  11.76000023  50.33000183
C    18.96000099  11.65999985  49.31000137
C    20.30999947  11.80999947  49.71000290
C    21.34000015  11.77999973  48.73000336
C    22.63000107  12.18000031  48.99000168
C    22.98999977  12.57999992  50.31000137
C    22.01999855  12.56000042  51.27999878
C    20.65999985  12.23000050  51.04000092
C    16.57999992  11.80999947  50.19000244
C    15.92000008  12.28999996  51.35000229
C    14.56999969  12.58999920  51.43000031
C    24.46000099  12.81999969  50.56000137
H    25.03526878  12.01746559  51.02163315
H    19.85999870  13.02999973  52.93000031
H    18.72999954  11.30000019  48.30999756
H    21.01000023  11.38000011  47.77999878
H    23.38999939  12.03999996  48.22999954
H    22.29999924  12.65999985  52.32999802
H    14.15999985  13.09000015  52.29999924
H    24.89999962  13.07000065  49.59000015
H    24.60000038  13.71000099  51.18999863
S    13.36999989  11.39999962  47.81000137
C    10.71000004  11.39000034  48.56999969
C    12.01000023  11.61999893  48.93000031
C    12.34000015  12.15000057  50.21999741
C    11.31000042  12.41000080  51.11000061
C     9.96000004  12.13000107  50.77000046
C     8.86999989  12.20999908  51.68000031
C     7.63000011  11.75000000  51.31000137
C     7.27999973  11.36999989  49.98000336
C     8.31999969  11.21999931  49.09000015
C     9.63999939  11.61999893  49.47000122
C    13.78999901  12.22000027  50.31999969
C    14.46000004  11.76000023  49.15999985
C    15.82999992  11.59000015  49.02999878
C     5.84000015  11.07999992  49.64000320
H     5.57005930  11.43518543  48.64548111
H    10.57000065  10.90999985  47.60000229
H    11.47999954  12.81999969  52.09999847
H     9.06999969  12.58999920  52.68000031
H     6.81999969  11.77000046  52.04000092
H     8.23999977  10.85000038  48.06999969
H    16.34000015  11.28999901  48.11000061
H     5.19000006  11.46000004  50.44000244
H     5.73999977   9.98999977  49.79000092
