96

S    16.48999977  12.56999969  58.99000168
C    19.25000000  12.72999954  58.40000153
C    17.97000122  12.41000080  58.02000046
C    17.69000053  12.01000023  56.68000031
C    18.71000099  11.77000046  55.77000046
C    20.00999832  12.17000008  56.14999771
C    21.11999893  12.01000023  55.27999878
C    22.39999962  12.31999969  55.68000031
C    22.65999985  12.93000031  56.93000031
C    21.61999893  13.12000084  57.81000137
C    20.29999924  12.72999954  57.43999863
C    16.27000046  11.78999996  56.45999908
C    15.47999954  12.11999989  57.60000229
C    14.09999943  12.05999947  57.65999603
C    24.05999947  13.42000008  57.23999786
H    24.45181274  12.92845249  58.13048172
H    19.43000031  13.05999947  59.41999817
H    18.60000038  11.25000000  54.81999969
H    20.95000076  11.68000031  54.26000214
H    23.22999954  12.15000057  55.00000000
H    21.84999847  13.43000031  58.82999802
H    13.55999947  12.30999947  58.56999969
H    24.70000076  13.10999966  56.40999603
H    24.15999985  14.50000000  57.42000198
S    13.20000076  10.75000000  54.03999710
C    10.38000011  10.71000004  54.66999817
C    11.69999981  10.97000027  54.95999908
C    11.97000027  11.46999931  56.27999878
C    10.98000050  11.77999973  57.19999695
C     9.63999939  11.52999973  56.81000137
C     8.55000019  11.82999992  57.68000031
C     7.23000002  11.69000053  57.31999969
C     6.91999960  11.10999966  56.05999756
C     7.92999983  10.72000027  55.20999908
C     9.28999996  11.02000046  55.52000046
C    13.38999939  11.64999962  56.52000046
C    14.19000053  11.31999969  55.38999939
C    15.57000065  11.39999962  55.31000137
C     5.50000000  10.72999954  55.72000122
H     5.11647224  11.22006321  54.82510376
H    10.21999931  10.26000023  53.68999863
H    11.31999969  12.30999947  58.09000015
H     8.69000053  12.07999992  58.73000336
H     6.48000002  11.95000076  58.06999969
H     7.69000006  10.11999989  54.33000183
H    16.02000046  10.95999908  54.41999817
H     4.77999973  11.00000000  56.49000168
H     5.58000040   9.63999939  55.56999969
S    13.53999996   8.67000008  50.90999985
C    10.88000107   7.97999954  51.46999741
C    12.20999908   7.88999987  51.79000092
C    12.64000034   7.30999994  53.02999878
C    11.65999985   6.98000002  53.95999908
C    10.27999973   7.00999975  53.64999771
C     9.30000019   6.53999996  54.56999969
C     7.99000025   6.80999994  54.27999878
C     7.55000019   7.35000038  53.04000092
C     8.50000000   7.77999973  52.14000320
C     9.88000011   7.57999992  52.38999939
C    14.04999924   7.57000017  53.23999786
C    14.68000031   8.34999943  52.22999954
C    16.01000023   8.75000000  52.22000122
C     6.15000010   7.86000013  52.76000214
H     5.78551388   7.31684351  51.88808823
H    10.57999992   8.38999939  50.51000214
H    12.05999947   6.57999992  54.88999939
H     9.61000061   6.25999975  55.58000183
H     7.30000019   6.88000011  55.12000275
H     8.21000004   8.21000004  51.18000031
H    16.44000053   9.06999969  51.27999878
H     5.55999994   7.62000036  53.64999771
H     6.10000038   8.93999958  52.57999802
S    17.28000069   7.53999996  55.73999786
C    19.97999954   7.86000013  55.04000092
C    18.64999962   8.03999996  54.72999954
C    18.18000031   8.69999981  53.54999924
C    19.10000038   9.10000038  52.60000229
C    20.48000145   9.09000015  52.93000031
C    21.45999908   9.57999992  52.02000046
C    22.81999969   9.48000050  52.23999786
C    23.23999786   8.97999954  53.50000000
C    22.29000092   8.56999969  54.41999817
C    20.88999939   8.55000019  54.20000076
C    16.73999977   8.57999992  53.40999985
C    16.10000038   7.88000011  54.45999908
C    14.81999969   7.34000015  54.38999939
C    24.69000053   8.64000034  53.75999832
H    25.07378769   9.16593266  54.63418579
H    20.38999939   7.34000015  55.90000153
H    18.78000069   9.40999985  51.60999680
H    21.09000015  10.03000069  51.11000061
H    23.48999977   9.78999996  51.45000076
H    22.62000084   8.19000053  55.38000107
H    14.39000034   6.76999998  55.20000076
H    25.27000046   8.92000008  52.87000275
H    24.79000092   7.55000019  53.85000229
