96

S    16.67000008  12.22000027  58.54999924
C    19.37000084  12.05999947  57.87000275
C    18.06999969  11.72000027  57.58999634
C    17.70000076  11.28000069  56.26999664
C    18.67000008  11.09000015  55.30000305
C    20.00000000  11.46999931  55.56000137
C    21.02000046  11.36999989  54.55999756
C    22.30999947  11.77000046  54.80999756
C    22.65000153  12.31999969  56.07999802
C    21.68000031  12.46000099  57.04999924
C    20.34000015  12.03999996  56.84000015
C    16.27000046  11.31999969  56.04999924
C    15.59999943  11.78999996  57.19999695
C    14.21000004  11.90000057  57.22999954
C    24.06999969  12.72999954  56.36000061
H    24.46703529  12.06355000  57.12570953
H    19.50000000  12.60000038  58.81000137
H    18.23999977  10.76000023  54.36000061
H    20.73999786  11.14999962  53.54000092
H    22.92000008  11.77999973  53.90999603
H    22.01000023  12.84000015  58.01000214
H    13.68000031  12.22000027  58.13000107
H    24.71999931  12.69000053  55.47000122
H    24.10000038  13.75000000  56.76000214
S    13.02000046  10.64000034  53.64999771
C    10.34000015  10.80000019  54.27999878
C    11.63000011  11.10000038  54.65999985
C    12.05999947  11.56000042  55.94999695
C    11.13000011  11.80999947  56.93000031
C     9.78999996  11.44999981  56.63999939
C     8.80000019  11.54999924  57.65999603
C     7.50000000  11.21000099  57.38999939
C     7.11999989  10.80999947  56.07999802
C     8.05000019  10.65999985  55.07999802
C     9.42000008  10.95000076  55.34000015
C    13.52000046  11.56999969  56.06999969
C    14.18000031  11.05999947  54.92000198
C    15.57000065  10.98999977  54.86999893
C     5.66999960  10.50000000  55.79999924
H     5.30800152  10.89039040  54.84886551
H    10.13000011  10.46000004  53.26000214
H    11.39000034  12.10999966  57.95000076
H     8.97999954  11.78999996  58.69999695
H     6.76000023  11.30000019  58.18999863
H     7.81000042  10.36000061  54.06000137
H    16.13999939  10.62000084  54.02999878
H     5.07999992  10.88999939  56.63999939
H     5.53999996   9.40999985  55.86999893
S    16.79999924  12.79000092  52.42000198
C    19.54000092  12.94999981  51.77999878
C    18.27000046  12.55000019  51.45000076
C    17.90999985  12.10999966  50.13999939
C    18.92000008  12.02999973  49.20000076
C    20.28000069  12.31999969  49.45000076
C    21.38999939  12.13000107  48.57999802
C    22.69000053  12.42000008  48.94000244
C    22.92000008  13.07999992  50.18000031
C    21.84000015  13.35999966  50.97999954
C    20.52999878  12.84999943  50.77000046
C    16.47999954  11.90999985  49.93999863
C    15.73999977  12.41000080  51.04999924
C    14.35999966  12.36999989  51.19999695
C    24.31999969  13.48000050  50.59999847
H    24.82001877  12.73711491  51.22145081
H    19.78000069  13.42000008  52.74000168
H    18.76000023  11.46999931  48.27999878
H    21.21999931  11.75000000  47.57999802
H    23.52000046  12.15000057  48.29000092
H    22.14999962  13.83999920  51.90999985
H    13.99000072  12.57999992  52.19999695
H    24.96000099  13.59000015  49.71000290
H    24.34000015  14.50000000  51.00000000
S    13.17000008  11.16000080  47.63000107
C    10.47000027  10.92000008  48.39000320
C    11.76000023  11.26999950  48.70999908
C    12.18000031  11.68000031  50.01999664
C    11.17000008  11.87999916  50.93999863
C     9.81000042  11.63000011  50.63000107
C     8.76000023  11.84999943  51.56000137
C     7.42999983  11.67000008  51.25000000
C     7.07999992  10.95999908  50.06999969
C     8.09000015  10.67000008  49.18000031
C     9.44000053  11.05999947  49.36000061
C    13.60999966  11.87000084  50.13000107
C    14.30999947  11.61999893  48.92000198
C    15.69000053  11.46999931  48.88000107
C     5.71000004  10.39000034  49.78000259
H     5.21125460  11.03124332  49.05325699
H    10.29000092  10.50000000  47.39999771
H    11.47999954  12.23999977  51.90999985
H     9.01000023  12.23000050  52.55000305
H     6.65999985  11.94000053  51.97000122
H     7.78999996  10.11000061  48.29000092
H    16.10999870  11.16000080  47.93000031
H     5.13999987  10.32999992  50.70999908
H     5.79999971   9.38000011  49.34000015
