96

S    16.69999886  12.55000019  58.85000229
C    19.38999939  12.36999989  58.29000092
C    18.11000061  12.01000023  57.91999817
C    17.77000046  11.52999973  56.62000275
C    18.78999901  11.43000031  55.68999863
C    20.10000038  11.87999916  55.98999786
C    21.15999985  11.87000084  55.04000092
C    22.46000099  12.09000015  55.41999817
C    22.76000023  12.57999992  56.72000122
C    21.76000214  12.67000008  57.65999603
C    20.43999863  12.25999928  57.34000397
C    16.34000015  11.61999893  56.36000061
C    15.65000057  12.15999985  57.47000122
C    14.26000023  12.20000076  57.50000000
C    24.15999985  13.00000000  57.09999847
H    24.65180969  12.30861473  57.78425598
H    19.57999992  12.98999977  59.15999985
H    18.54999924  11.13000011  54.68000031
H    20.95999908  11.56999969  54.01000214
H    23.22000122  11.92999935  54.65000153
H    21.94000053  13.12000084  58.63999939
H    13.85000038  12.51999950  58.44999695
H    24.73999977  13.26000023  56.20999908
H    24.02000046  13.96000004  57.61000061
S    13.09999943  11.00999928  53.94000244
C    10.36000061  10.90999985  54.68999863
C    11.67000008  11.21000099  54.97000122
C    12.01000023  11.77000046  56.25000000
C    10.98000050  12.06999969  57.11999893
C     9.63000011  11.73999977  56.84000015
C     8.60999966  11.92000008  57.81999969
C     7.31999969  11.56999969  57.50999832
C     6.94999981  11.02000046  56.25999832
C     7.92000008  10.85000038  55.28999710
C     9.27999973  11.13000011  55.58000183
C    13.45000076  11.82000065  56.43000031
C    14.18000031  11.39000034  55.28999710
C    15.55999947  11.21999931  55.26000214
C     5.53999996  10.62000084  55.90000153
H     5.20648527  11.22316456  55.05557251
H    10.11999989  10.59000015  53.68000031
H    11.25000000  12.31999969  58.15000153
H     8.89000034  12.25999928  58.81999969
H     6.56000042  11.71000004  58.27000046
H     7.53000021  10.46000004  54.36000061
H    16.11999893  10.90999985  54.38000107
H     4.96000004  10.70000076  56.83000183
H     5.49000025   9.55000019  55.65999985
S    17.09000015  13.05999947  52.61000061
C    19.77000046  13.22000027  51.93000031
C    18.48999977  12.88000011  51.52999878
C    18.06999969  12.46000099  50.22999573
C    19.09000015  12.36999989  49.29000092
C    20.40999985  12.76000023  49.59999847
C    21.50000000  12.74000072  48.68000031
C    22.77000046  12.97000027  49.15000153
C    23.05999947  13.52000046  50.43000031
C    22.03000069  13.69999981  51.32999802
C    20.76999855  13.17000008  50.93000031
C    16.62999916  12.32999992  50.08999634
C    15.97000027  12.63000011  51.30000305
C    14.59000015  12.53000069  51.45999908
C    24.50000000  13.68000031  50.84999847
H    24.76398849  13.03072834  51.68477631
H    19.98999977  13.55999947  52.93000031
H    18.85000038  11.90000057  48.34000015
H    21.28999901  12.27000046  47.71999741
H    23.61000061  12.68000031  48.53000259
H    22.21999931  14.13000011  52.30999756
H    14.01000023  12.81999969  52.32999802
H    25.09000015  13.53000069  49.93999863
H    24.67000008  14.73000050  51.11999893
S    13.38000107  11.56999969  47.80000305
C    10.69000053  11.39000034  48.53000259
C    11.97999954  11.72000027  48.88000107
C    12.39999962  12.23999977  50.14999771
C    11.39999962  12.53999901  51.05999756
C    10.03999901  12.28999996  50.72999954
C     9.00000000  12.41000080  51.69000244
C     7.69000006  12.11999989  51.38999939
C     7.36999989  11.50000000  50.14999771
C     8.36000061  11.21000099  49.23999786
C     9.68999958  11.63000011  49.50000000
C    13.83999920  12.27000046  50.31000137
C    14.52000046  11.85999966  49.13000107
C    15.90000057  11.85999966  48.99000168
C     5.92000008  11.10999966  49.92000198
H     5.53552532  11.43039608  48.95169067
H    10.42000008  10.90999985  47.58999634
H    11.59999943  12.86000061  52.08000183
H     9.19999981  12.79999924  52.69000244
H     6.91999960  12.43000031  52.08000183
H     8.23999977  10.69000053  48.29999924
H    16.39999962  11.61000061  48.06000137
H     5.26000023  11.42000008  50.72999954
H     5.89999962  10.01999950  49.99000168
