96

S    16.87000084  12.82999992  58.85000229
C    19.52999878  12.76999950  58.20999908
C    18.25000000  12.50000000  57.78999710
C    18.00000000  11.98999977  56.47999573
C    19.04999924  11.77999973  55.59000015
C    20.36000061  12.13000107  55.97000122
C    21.40000153  12.01000023  55.00000000
C    22.69000053  12.20000076  55.45000076
C    22.98999977  12.76000023  56.72000122
C    21.96000099  12.94000053  57.62000275
C    20.61000061  12.63000011  57.29999924
C    16.55999947  11.97999954  56.27999878
C    15.86999989  12.41000080  57.43999863
C    14.48999977  12.48999977  57.50999832
C    24.40999985  13.17000008  57.02000046
H    24.86666107  12.49928093  57.74780273
H    19.76000023  13.07000065  59.22999954
H    18.88000107  11.40999985  54.58000183
H    21.24000168  11.73999977  53.96999741
H    23.52000046  12.06999969  54.75000000
H    22.20000076  13.40000057  58.56999969
H    13.96999931  12.75000000  58.41999817
H    24.99000168  13.09999943  56.09000397
H    24.50000000  14.21000004  57.35000229
S    13.34000015  11.28000069  53.93000031
C    10.70000076  10.77000046  54.64000320
C    11.94000053  11.26000023  55.00999832
C    12.27000046  11.76000023  56.31000137
C    11.21999931  11.87999916  57.21000290
C     9.92000008  11.49000072  56.84000015
C     8.76000023  11.79999924  57.61000061
C     7.48000050  11.44000053  57.29000092
C     7.26999998  10.80000019  56.03000259
C     8.30999947  10.51000023  55.18000031
C     9.63999939  10.85000038  55.56999969
C    13.68999958  12.02999973  56.45000076
C    14.40000057  11.79999924  55.25000000
C    15.78999996  11.72999954  55.13999939
C     5.88999987  10.31000042  55.66999817
H     5.32085419  11.07123280  55.13642502
H    10.44999981  10.31999969  53.68999863
H    11.43000031  12.30999947  58.18999863
H     8.85999966  12.28999996  58.57999802
H     6.65999985  11.61999893  57.97999954
H     8.11999989  10.10000038  54.19000244
H    16.22999954  11.38000011  54.20999908
H     5.27999973  10.03000069  56.52999878
H     6.00000000   9.43000031  55.01999664
S    17.36999893  13.17000008  52.55000305
C    20.13000107  13.14000034  51.93999863
C    18.82999992  12.84999943  51.59000015
C    18.44000053  12.32999992  50.31999969
C    19.40000153  12.25999928  49.31999969
C    20.76000023  12.50000000  49.61000061
C    21.78999901  12.35000038  48.63999939
C    23.09000015  12.64999962  48.96999741
C    23.43000031  13.10999966  50.27999878
C    22.46999931  13.27000046  51.25000000
C    21.11000061  12.97999954  50.91999817
C    17.00000000  12.30000019  50.13999939
C    16.23999977  12.79000092  51.23000336
C    14.85999966  12.84000015  51.32999802
C    24.86000061  13.50000000  50.56999969
H    25.29168892  12.79938984  51.28476715
H    20.42000008  13.57999992  52.88999939
H    19.18000031  11.79999924  48.36000061
H    21.54999924  12.06999969  47.62000275
H    23.85000038  12.55000019  48.20999908
H    22.63999939  13.75000000  52.21000290
H    14.37999916  13.05999947  52.28000259
H    25.39999962  13.60999966  49.61999893
H    24.84999847  14.52000046  50.97000122
S    13.68999958  11.64000034  47.80000305
C    10.98999977  11.61999893  48.36999893
C    12.25000000  11.97999954  48.77999878
C    12.60000038  12.30000019  50.13000107
C    11.54999924  12.20000076  51.03000259
C    10.21000004  12.05000019  50.59000015
C     9.11999989  12.05000019  51.50000000
C     7.86999989  11.61999893  51.10000229
C     7.57000017  11.26000023  49.75999832
C     8.57999992  11.32999992  48.81999969
C     9.86999989  11.77000046  49.22000122
C    14.04999924  12.36999989  50.28999710
C    14.80000019  11.97000027  49.15000153
C    16.18999863  11.97000027  49.03999710
C     6.19000006  10.77000046  49.38999939
H     5.79223299  11.35244465  48.55895233
H    10.80999947  11.28999901  47.34000397
H    11.63000011  12.25000000  52.11000061
H     9.35999966  12.06999969  52.56000137
H     7.07999992  11.59999943  51.84000015
H     8.30000019  11.00000000  47.81999969
H    16.68000031  11.50000000  48.20000076
H     5.58000040  10.72000027  50.30000305
H     6.28000021   9.71000004  49.15000153
