96

S    16.79000092  11.96000004  58.77999878
C    19.51000023  12.17000008  58.06999969
C    18.20999908  11.87000084  57.71999741
C    17.86000061  11.46999931  56.38999939
C    18.84000015  11.42000008  55.40999985
C    20.19000053  11.64999962  55.75000000
C    21.25999832  11.46000004  54.81999969
C    22.56999969  11.72000027  55.12000275
C    22.85000038  12.20000076  56.43000031
C    21.88999939  12.28999996  57.42000198
C    20.52999878  12.00000000  57.09999847
C    16.42000008  11.36999989  56.19999695
C    15.72999954  11.79999924  57.36000061
C    14.37000084  12.07999992  57.29000092
C    24.27000046  12.60000038  56.75000000
H    24.70430565  11.98769855  57.54029465
H    19.85000038  12.23999977  59.09999847
H    18.63999939  11.06999969  54.40000153
H    20.98999977  11.11999989  53.82999802
H    23.39999962  11.49000072  54.45000076
H    22.19000053  12.76000023  58.34999847
H    13.83999920  12.30999947  58.20000076
H    24.86000061  12.53000069  55.83000183
H    24.34000015  13.68000031  56.95999908
S    13.27999973  10.73999977  53.69999695
C    10.51000023  10.98000050  54.36000061
C    11.84999943  11.17000008  54.65000153
C    12.20999908  11.84000015  55.86999893
C    11.25000000  12.13999939  56.81999969
C     9.88000011  11.85999966  56.59999847
C     8.92000008  12.02999973  57.63999939
C     7.63000011  11.68000031  57.31999969
C     7.23999977  11.26000023  56.02000427
C     8.14999962  11.18000031  54.98000336
C     9.52000046  11.28000069  55.34000015
C    13.63999939  11.84999943  56.11000061
C    14.34000015  11.25000000  55.04000092
C    15.72000027  11.13000011  55.00999832
C     5.86999989  10.71000004  55.72000122
H     5.31401634  11.36577606  55.04997253
H    10.21000004  10.85000038  53.33000183
H    11.51000023  12.46999931  57.81999969
H     9.19000053  12.31999969  58.63999939
H     6.88000011  11.76000023  58.11000061
H     7.83999968  10.77000046  54.02999878
H    16.28000069  10.85000038  54.13000107
H     5.36000013  10.46000004  56.65999985
H     6.01999998   9.81999969  55.08999634
S    17.18000031  12.97000027  52.38999939
C    19.84000015  12.64000034  51.93999863
C    18.56999969  12.30999947  51.51000214
C    18.20999908  11.59000015  50.33000183
C    19.29000092  11.35000038  49.51000214
C    20.59999847  11.84000015  49.73999786
C    21.60000038  11.80999947  48.72000122
C    22.86000061  12.20999908  49.06999969
C    23.21000099  12.51999950  50.40999985
C    22.25000000  12.71000004  51.37000275
C    20.89999962  12.38000011  51.04000092
C    16.76000023  11.59999943  50.17000198
C    16.05999947  12.28000069  51.19999695
C    14.68999958  12.48999977  51.20999908
C    24.67000008  12.82999992  50.70000076
H    24.98394012  12.33768272  51.62041855
H    20.06000137  13.09000015  52.90000153
H    19.05999947  10.98000050  48.50999832
H    21.32999802  11.56999969  47.69000244
H    23.61999893  12.39999962  48.31999969
H    22.46000099  13.27000046  52.28000259
H    14.22999954  12.77999973  52.15000153
H    25.29000092  12.53999901  49.84000397
H    24.84000015  13.92000008  50.76000214
S    13.60000038  10.93000031  47.75000000
C    10.85000038  11.11999989  48.47000122
C    12.18000031  11.36000061  48.72000122
C    12.56000042  12.02000046  49.93999863
C    11.61000061  12.25999928  50.91999817
C    10.24000072  12.05999947  50.63999939
C     9.23999977  12.46999931  51.56999969
C     7.92000008  12.10999966  51.40999603
C     7.50999975  11.44000053  50.22999573
C     8.46000004  11.14999962  49.27000046
C     9.84000015  11.46000004  49.40000153
C    14.01000023  12.09000015  50.05000305
C    14.73999977  11.57999992  48.95000076
C    16.05999947  11.16000080  49.03999710
C     6.07999992  10.98999977  50.07999802
H     5.56040001  11.55230713  49.30415726
H    10.60999966  10.65000057  47.51999664
H    11.80999947  12.53999901  51.95000076
H     9.61000061  12.89999962  52.50000000
H     7.26000023  12.27000046  52.25000000
H     8.18000031  10.57999992  48.39000320
H    16.52000046  10.65000057  48.18999863
H     5.55000019  11.00999928  51.04000092
H     6.25000000   9.94999981  49.75999832
