96

S    16.40999985  12.76999950  58.36000061
C    19.11999893  12.48999977  57.81999969
C    17.81999969  12.23000050  57.43000031
C    17.43999863  11.75000000  56.13999939
C    18.48999977  11.56999969  55.26000214
C    19.82999992  11.94000053  55.54000092
C    20.92000008  11.75000000  54.64000320
C    22.21999931  12.10999966  54.89999771
C    22.47999954  12.72999954  56.14999771
C    21.47000122  12.90999985  57.06999969
C    20.12000084  12.53999901  56.81999969
C    16.00000000  11.71000004  55.97000122
C    15.31000042  12.35000038  57.04000092
C    13.92000008  12.39999962  57.11000061
C    23.90999985  13.12999916  56.46999741
H    24.42049408  12.42807102  57.12938690
H    19.27000046  13.03999996  58.74000168
H    18.18000031  11.17000008  54.29999924
H    20.66999817  11.26999950  53.69999695
H    23.02999878  11.96000004  54.18000031
H    21.71999931  13.22999954  58.06999969
H    13.36999989  12.61000061  58.02000046
H    24.53000069  13.17000008  55.56999969
H    23.87000084  14.09999943  56.97000122
S    12.67000008  10.75000000  53.69999695
C    10.01999950  10.59000015  54.54000092
C    11.30000019  11.03999996  54.79000092
C    11.75000000  11.54999924  56.04000092
C    10.82999992  11.79999924  57.04000092
C     9.47000027  11.56000042  56.76000214
C     8.47000027  11.92000008  57.71999741
C     7.13000011  11.72000027  57.50000000
C     6.75000000  11.05999947  56.30000305
C     7.69000006  10.59999943  55.40999985
C     9.06999969  10.93000031  55.52999878
C    13.19000053  11.82000065  56.06999969
C    13.82999992  11.30000019  54.92000198
C    15.21999931  11.17000008  54.93999863
C     5.32000017  10.67000008  55.98999786
H     5.04948854  11.01881790  54.99337769
H     9.71000004  10.03999901  53.66000366
H    11.10999966  12.25000000  57.98999786
H     8.76999950  12.41000080  58.63999939
H     6.37000036  12.09000015  58.18999863
H     7.53000021   9.88000011  54.61999893
H    15.65000057  10.72999954  54.05000305
H     4.59000015  11.17000008  56.65000153
H     5.27999973   9.57999992  56.04000092
S    16.53000069  12.93000031  52.63000107
C    19.27000046  12.92000008  52.01000214
C    17.97999954  12.61000061  51.65000153
C    17.61999893  12.02000046  50.38999939
C    18.64999962  11.72999954  49.51000214
C    19.98999977  12.05999947  49.80999756
C    21.09999847  11.89000034  48.94000244
C    22.37999916  12.30000019  49.20999908
C    22.65000153  12.81999969  50.51000214
C    21.64999962  12.96000004  51.44000244
C    20.30999947  12.64000034  51.09000397
C    16.18000031  12.02999973  50.17000198
C    15.44999981  12.46000099  51.31000137
C    14.06999969  12.64999962  51.33999634
C    24.05999947  13.23999977  50.84999847
H    24.69867134  12.55165482  51.40351486
H    19.52999878  13.42000008  52.94000244
H    18.47999954  11.36999989  48.50000000
H    20.92000008  11.61000061  47.90000153
H    23.16999817  12.20999908  48.47000122
H    21.94999886  13.47000027  52.35000229
H    13.60999966  12.97000027  52.27000427
H    24.61000061  13.61999989  49.97000122
H    23.98999977  14.13000011  51.47999573
S    12.97999954  11.18999958  47.81999969
C    10.27999973  11.09000015  48.57999802
C    11.57999992  11.38000011  48.89999771
C    11.89000034  11.98999977  50.15999603
C    10.93999958  12.09000015  51.16000366
C     9.59999943  11.78999996  50.80999756
C     8.56999969  11.94000053  51.77999878
C     7.23000002  11.82999992  51.45999908
C     6.89000034  11.54999924  50.12000275
C     7.85000038  11.10999966  49.22999954
C     9.22999954  11.31999969  49.50000000
C    13.32999992  12.20999908  50.24000168
C    14.06000042  11.77000046  49.10999680
C    15.44000053  11.79999924  49.00000000
C     5.45000029  11.82999992  49.75999832
H     5.21555185  11.62397003  48.71564102
H     9.94000053  10.85000038  47.56999969
H    11.26999950  12.35999966  52.15999985
H     8.92000008  12.18000031  52.77999878
H     6.43000031  11.92999935  52.18999863
H     7.53999996  10.81999969  48.22999954
H    16.00000000  11.56000042  48.11000061
H     5.33999968  12.89999962  49.98000336
H     4.74000025  11.28000069  50.40000153
