96

S    14.93000031  33.88000107  56.88999939
C    17.64000130  33.56999969  56.30000305
C    16.32999992  33.31999969  55.96000290
C    15.93000031  32.78000259  54.69999695
C    16.90999985  32.49000168  53.75999832
C    18.26000023  32.79999924  54.03999710
C    19.29000092  32.56000137  53.09999847
C    20.59999847  32.86999893  53.41999817
C    20.95999908  33.54999924  54.61000061
C    19.96000099  33.86000061  55.50000000
C    18.63000107  33.41999817  55.28999710
C    14.48999977  32.76000214  54.52000046
C    13.81999969  33.38000107  55.61000061
C    12.43000031  33.47999954  55.61000061
C    22.36999893  34.04000092  54.79999924
H    22.90413094  33.42753220  55.52641678
H    17.85000038  34.00000000  57.28000259
H    16.60000038  32.13999939  52.77999878
H    19.11000061  32.07999802  52.14000320
H    21.38000107  32.75000000  52.68000031
H    20.20000076  34.61000061  56.25999832
H    11.89000034  33.79000092  56.50000000
H    22.95999908  33.84999847  53.88999939
H    22.26000023  35.11000061  55.00000000
S    11.21999931  32.27999878  52.06999969
C     8.52999973  32.13000107  52.81000137
C     9.82999992  32.43000031  53.15999985
C    10.21000004  32.88000107  54.45999908
C     9.15999985  33.20000076  55.30000305
C     7.81000042  32.95999908  54.94999695
C     6.77999973  33.11999893  55.91999817
C     5.49000025  32.79000092  55.56999969
C     5.13000011  32.18000031  54.34000015
C     6.11000013  31.97000122  53.39000320
C     7.44000006  32.36000061  53.69999695
C    11.65999985  33.04000092  54.52999878
C    12.36999989  32.63999939  53.36999893
C    13.75000000  32.45999908  53.36999893
C     3.70000005  31.75000000  54.18000031
H     3.17522645  32.21095276  53.34320068
H     8.19000053  31.73999977  51.86000061
H     9.36999989  33.58000183  56.29000092
H     6.88000011  33.50000000  56.93000031
H     4.74000025  32.79999924  56.35000229
H     5.92000008  31.31999969  52.52999878
H    14.28999996  32.00999832  52.54000092
H     3.22000003  31.91999817  55.14999771
H     3.54999995  30.68000031  53.94000244
S    12.25000000  30.36999893  49.61000061
C     9.57999992  29.70999908  50.13000107
C    10.90000057  29.63000107  50.48999786
C    11.38000011  28.95999908  51.66999817
C    10.36999893  28.48999977  52.49000168
C     8.97999954  28.61999893  52.25000000
C     8.01000023  28.09999847  53.15000153
C     6.70000029  28.19999886  52.77000046
C     6.25000000  28.85999870  51.59000015
C     7.18999958  29.31999969  50.70000076
C     8.57999992  29.20000076  50.98999786
C    12.79000092  29.13999939  51.93999863
C    13.38999939  29.79000092  50.84000015
C    14.75999928  30.03000069  50.84000015
C     4.78999996  29.06999969  51.27999878
H     4.35612822  28.30183411  50.63986206
H     9.19000053  30.20000076  49.23999786
H    10.65999985  27.98000145  53.40999985
H     8.25000000  27.72000122  54.13999939
H     6.01000023  27.98999977  53.57999802
H     6.83000040  29.99000168  49.92000198
H    15.25000000  30.55999947  50.02999878
H     4.28000021  29.07999992  52.25000000
H     4.69000006  30.00000000  50.68999863
S    16.06999969  28.36999893  54.19000244
C    18.78999901  28.68999863  53.43000031
C    17.45000076  28.82999802  53.16999817
C    16.98999977  29.53000069  52.01000214
C    17.93000031  30.13000107  51.19999695
C    19.29999924  29.79999924  51.31999969
C    20.20999908  30.17000008  50.28999710
C    21.54999924  30.03999901  50.56999969
C    21.97999954  29.56000137  51.83000183
C    21.15999985  29.07999992  52.81999969
C    19.77000046  29.18000031  52.52999878
C    15.53999996  29.51999855  51.88000107
C    14.88999939  28.87000084  52.95999908
C    13.50999928  28.75999832  53.09000015
C    23.32999992  30.07999802  52.29000092
H    23.77223969  29.59496498  53.16020966
H    18.98999977  28.22999954  54.38999939
H    17.56000137  30.45999908  50.22999573
H    19.78999901  30.75000000  49.47000122
H    22.26000023  30.52000046  49.91000366
H    21.40000153  28.75999832  53.82999802
H    13.00000000  28.26999855  53.90999603
H    23.02999878  31.07999992  52.62000275
H    24.00000000  30.10999870  51.42000198
