96

S    15.39000034  33.77999878  57.09000015
C    18.02999878  33.91999817  56.27999878
C    16.75000000  33.50000000  55.98999786
C    16.27000046  32.86999893  54.79999924
C    17.22999954  32.70000076  53.81999969
C    18.59000015  33.02000046  54.03999710
C    19.61000061  32.93000031  53.04000092
C    20.92000008  33.27999878  53.27000046
C    21.28999901  33.84000015  54.52000046
C    20.34000015  34.01000214  55.51000214
C    19.01000023  33.58000183  55.30000305
C    14.81999969  32.85000229  54.68000031
C    14.19999981  33.31999969  55.86000061
C    12.81000042  33.43000031  55.84000015
C    22.65000153  34.38000107  54.89999771
H    23.12625313  33.70471573  55.61082458
H    18.22000122  34.48999786  57.18000031
H    16.88999939  32.31999969  52.85999680
H    19.26000023  32.63000107  52.05999756
H    21.52000046  33.15999985  52.37999725
H    20.56999969  34.38999939  56.50000000
H    12.36999989  33.52999878  56.81999969
H    23.19999886  34.48999786  53.95999908
H    22.62000084  35.33000183  55.44000244
S    11.69000053  32.26000214  52.18999863
C     9.02999973  32.11000061  52.91999817
C    10.31999969  32.36000061  53.30999756
C    10.59999943  32.90000153  54.61000061
C     9.55999947  33.08000183  55.50000000
C     8.21000004  32.79000092  55.17000198
C     7.16000032  32.86999893  56.12999725
C     5.84999990  32.77000046  55.70999908
C     5.60999966  32.21999741  54.41999817
C     6.61999989  31.97000122  53.53000259
C     7.96999979  32.33000183  53.82999802
C    12.03999996  33.06999969  54.72999954
C    12.74000072  32.73999786  53.54000092
C    14.11999893  32.56000137  53.50000000
C     4.23999977  31.65999985  54.10999680
H     3.76196384  32.19511414  53.28948975
H     8.80999947  31.63000107  51.97000122
H     9.84000015  33.11000061  56.55000305
H     7.37999964  33.08000183  57.16999817
H     5.03000021  32.86000061  56.40999603
H     6.39999962  31.50000000  52.56999969
H    14.56999969  32.15999985  52.60000229
H     3.68000007  31.70999908  55.06000137
H     4.32000017  30.61000061  53.81999969
S    15.84000015  34.22000122  51.11000061
C    18.48999977  34.50000000  50.24000168
C    17.20000076  34.06999969  49.99000168
C    16.90999985  33.29000092  48.81999969
C    17.94000053  33.16999817  47.90000153
C    19.27000046  33.61999893  48.09000015
C    20.27000046  33.55999756  47.09000015
C    21.55999947  33.77999878  47.50999832
C    21.94000053  34.36000061  48.75000000
C    20.89999962  34.65999985  49.61000061
C    19.54000092  34.34999847  49.29999924
C    15.47000027  33.20000076  48.70999908
C    14.73999977  33.68999863  49.82999802
C    13.38000107  34.00000000  49.84000397
C    23.36000061  34.72999954  49.13000107
H    23.77259636  34.13956070  49.94807816
H    18.72999954  34.92000198  51.20999908
H    17.78000069  32.93000031  46.84999847
H    20.00999832  33.16999817  46.11000061
H    22.36999893  33.45000076  46.88000107
H    21.04999924  35.09999847  50.59000015
H    13.01000023  34.40999985  50.77000046
H    23.95999908  34.61999893  48.22000122
H    23.35000038  35.79000092  49.40999985
S    12.17000008  32.52999878  46.37000275
C     9.46000004  32.70000076  47.05999756
C    10.77999973  32.93999863  47.37999725
C    11.13999939  33.48999786  48.64999771
C    10.11999989  33.61000061  49.58000183
C     8.73999977  33.43000031  49.33000183
C     7.75000000  33.52000046  50.34999847
C     6.47000027  33.20999908  49.98000336
C     6.14000034  32.65999985  48.70999908
C     7.11999989  32.44999695  47.77000046
C     8.43000031  32.93000031  48.01000214
C    12.58999920  33.54999924  48.77999878
C    13.27999973  33.01000214  47.67000198
C    14.67000008  32.93000031  47.58999634
C     4.77999973  32.04999924  48.47000122
H     4.04671049  32.64802170  47.92893219
H     9.27999973  32.37999725  46.03000259
H    10.43000031  33.74000168  50.61000061
H     8.11999989  33.82999802  51.32999802
H     5.66999960  33.36999893  50.70000076
H     6.89000034  32.06000137  46.79000092
H    15.26000023  32.49000168  46.79999924
H     4.26999998  31.94000053  49.43999863
H     4.78999996  31.02000046  48.09999847
