96

S    15.69000053  33.70999908  57.09999847
C    18.36000061  33.61999893  56.37000275
C    17.06999969  33.22999954  56.09000397
C    16.72999954  32.68000031  54.81999969
C    17.71000099  32.59000015  53.83999634
C    19.06999969  32.88999939  54.12000275
C    20.07999802  32.70999908  53.13000107
C    21.37000084  33.02000046  53.48999786
C    21.65999985  33.77000046  54.65000153
C    20.69999886  33.95999908  55.61999893
C    19.37999916  33.47999954  55.38999939
C    15.27999973  32.70000076  54.65999985
C    14.60000038  33.20000076  55.79000092
C    13.21000004  33.31000137  55.86999893
C    23.09000015  34.04000092  55.06000137
H    23.52297783  33.29471207  55.72721481
H    18.48999977  33.95000076  57.38999939
H    17.50000000  32.15999985  52.87000275
H    19.88999939  32.37999725  52.11000061
H    22.21999931  32.69000244  52.90000153
H    20.95999908  34.29000092  56.62000275
H    12.72999954  33.51000214  56.81999969
H    23.65999985  34.11000061  54.12000275
H    23.09000015  35.04000092  55.50000000
S    12.02999973  32.23999786  52.21000290
C     9.32999992  32.49000168  52.87000275
C    10.64000034  32.75000000  53.18999863
C    11.05000019  33.13999939  54.51000214
C    10.03999901  33.15000153  55.45000076
C     8.69000053  32.85000229  55.17000198
C     7.76999998  32.78000259  56.25999832
C     6.46000004  32.45999908  55.98999786
C     6.01000023  32.13999939  54.68000031
C     6.96000004  32.02000046  53.68000031
C     8.30000019  32.44999695  53.85000229
C    12.48999977  33.09999847  54.68999863
C    13.15000057  32.59000015  53.54000092
C    14.52999973  32.36000061  53.53000259
C     4.56999969  31.73000145  54.47000122
H     4.13691998  32.19147873  53.58254242
H     9.03999996  32.00000000  51.95000076
H    10.26000023  33.41999817  56.47999573
H     8.10000038  33.22999954  57.19999695
H     5.71000004  32.50000000  56.77000046
H     6.57999992  31.65999985  52.72999573
H    15.06000042  31.87000084  52.71999741
H     4.00999975  31.98999786  55.37000275
H     4.36999989  30.65999985  54.34999847
S    12.18999958  30.06999969  49.38999939
C     9.51000023  29.84999847  50.12000275
C    10.81999969  29.61000061  50.43000031
C    11.28999901  29.01000023  51.63999939
C    10.31999969  28.59000015  52.52999878
C     8.94999981  28.82999802  52.23999786
C     7.92000008  28.31999969  53.08000183
C     6.57000017  28.42000008  52.81000137
C     6.19000006  29.09000015  51.62000275
C     7.11000013  29.51999855  50.70999908
C     8.50000000  29.40999985  51.00999832
C    12.74000072  29.09000015  51.77000046
C    13.36999989  29.69000053  50.65000153
C    14.72000027  30.02000046  50.70999908
C     4.69000006  29.15999985  51.38999939
H     4.42807817  28.93347359  50.35647202
H     9.19999981  30.32999992  49.19000244
H    10.64000034  28.09000015  53.43999863
H     8.27999973  27.67999840  53.88000107
H     5.89999962  27.81999969  53.41999817
H     6.90000010  29.94999886  49.72999954
H    15.19999981  30.38000107  49.80999756
H     4.15999985  28.50000000  52.09000015
H     4.33999968  30.17999840  51.56999969
S    16.10999870  28.44000053  54.06999969
C    18.78999901  28.90999985  53.34000015
C    17.45000076  29.03000069  53.06999969
C    16.95999908  29.69000053  51.88999939
C    17.85000038  30.20000076  50.97000122
C    19.25000000  30.07999802  51.20999908
C    20.20000076  30.53999901  50.26000214
C    21.53000069  30.30999947  50.48999786
C    21.97000122  29.86000061  51.77000046
C    21.09999847  29.37999916  52.71999741
C    19.70999908  29.53000069  52.45999908
C    15.51000023  29.57999992  51.79000092
C    14.88999939  28.90999985  52.87000275
C    13.50999928  28.74000168  52.88000107
C    23.43000031  29.50000000  51.86999893
H    23.85748863  29.80636597  52.82472229
H    19.18000031  28.45999908  54.25000000
H    17.57999992  30.53999901  49.98000336
H    19.79999924  30.95999908  49.34000015
H    22.20000076  30.30999947  49.62999725
H    21.32999802  28.85999870  53.63999939
H    13.02999973  28.29000092  53.74000168
H    23.98999977  29.96000099  51.04000092
H    23.48999977  28.40999985  51.88999939
