96

S    15.47999954  33.84000015  56.90999985
C    18.17000008  33.98999786  56.26999664
C    16.90000153  33.67000198  55.84999847
C    16.51000023  33.15000153  54.56999969
C    17.54999924  32.92000198  53.69999695
C    18.89999962  33.15999985  54.05000305
C    20.02000046  32.92000198  53.20000076
C    21.28999901  33.38999939  53.40999985
C    21.47999954  34.13000107  54.61000061
C    20.43999863  34.45000076  55.45999908
C    19.19000053  33.80000305  55.31000137
C    15.06999969  33.02000046  54.40000153
C    14.39000034  33.32999802  55.59999847
C    13.01000023  33.43000031  55.70999908
C    22.86000061  34.61999893  54.99000168
H    23.33785057  33.89252090  55.64615631
H    18.47999954  34.43000031  57.22000122
H    17.43000031  32.57999802  52.67000198
H    19.77000046  32.50000000  52.22999954
H    22.04999924  33.36000061  52.63000107
H    20.52000046  35.05000305  56.37000275
H    12.55000019  33.69999695  56.65999985
H    23.48999977  34.80999756  54.10999680
H    22.79999924  35.54999924  55.56000137
S    11.78999996  32.63000107  52.04999924
C     9.15999985  32.18000031  52.90999985
C    10.44000053  32.57999802  53.20000076
C    10.80000019  33.04999924  54.51000214
C     9.85999966  33.36000061  55.47999954
C     8.52000046  33.06999969  55.13000107
C     7.46000004  33.32999802  56.04999924
C     6.15999985  32.93000031  55.84000015
C     5.86999989  32.36999893  54.56999969
C     6.81999969  32.06999969  53.61999893
C     8.17000008  32.43999863  53.88000107
C    12.23999977  33.20000076  54.55999756
C    12.94999981  32.90000153  53.36999893
C    14.32999992  32.78000259  53.23999786
C     4.46000004  31.84000015  54.36000061
H     3.91325665  32.40804291  53.60734177
H     8.92000008  31.77999878  51.91999817
H    10.25000000  33.88000107  56.33999634
H     7.76999998  33.75000000  57.00000000
H     5.36999989  33.13000107  56.56000137
H     6.65000010  31.65999985  52.63000107
H    14.91000080  32.57999802  52.34000397
H     4.07000017  31.80999947  55.38999939
H     4.56999969  30.81000137  54.01000214
S    12.15000057  30.52000046  49.18000031
C     9.50000000  29.79999924  49.91000366
C    10.85999966  29.73999977  50.12000275
C    11.39999962  29.13999939  51.30000305
C    10.52999973  28.61000061  52.23999786
C     9.13999939  28.57000160  52.00000000
C     8.19999981  28.11000061  52.97000122
C     6.84999990  28.26000023  52.75000000
C     6.32000017  28.88000107  51.59000015
C     7.18999958  29.34999847  50.63000107
C     8.59000015  29.17000008  50.80999756
C    12.81999969  29.40999985  51.45000076
C    13.40000057  30.13000107  50.37000275
C    14.75000000  30.45999908  50.26000214
C     4.84000015  29.14999962  51.45999908
H     4.38624620  28.59698677  50.63757324
H     8.96000004  30.28000069  49.09999847
H    10.88000107  28.13999939  53.15000153
H     8.60999966  27.65000153  53.86000061
H     6.11000013  27.92000008  53.47000122
H     6.85999966  29.87999916  49.75000000
H    15.11000061  30.76999855  49.29000092
H     4.30000019  28.88999939  52.37999725
H     4.72000027  30.22000122  51.29000092
S    16.13000107  28.87000084  53.69999695
C    18.78000069  29.30000114  52.90000153
C    17.43000031  29.40999985  52.63000107
C    16.98999977  30.02000046  51.40999603
C    17.86000061  30.53999901  50.47999954
C    19.23999977  30.43999863  50.77999878
C    20.15999985  30.96999931  49.82999802
C    21.50000000  31.04999924  50.13999939
C    21.97000122  30.48999977  51.36000061
C    21.12999916  29.82000160  52.22000122
C    19.72999954  29.77999878  51.95999908
C    15.52999973  29.99000168  51.32999802
C    14.96000099  29.34999847  52.44999695
C    13.63999939  28.92999840  52.48000336
C    23.40999985  30.62000084  51.77000046
H    23.62993050  30.19432831  52.74904633
H    19.11000061  28.78000069  53.80000305
H    17.46999931  30.95999908  49.55999756
H    19.81999969  31.42000008  48.89999771
H    22.19000053  31.63000107  49.54000092
H    21.50000000  29.63999939  53.22999954
H    13.36999989  28.22000122  53.26000214
H    23.55999947  31.70999908  51.86000061
H    24.05999947  30.19000053  51.00000000
