96

S    15.39999962  34.03000259  56.91999817
C    18.13999939  33.88000107  56.19999695
C    16.81999969  33.55999756  55.96000290
C    16.40999985  32.90999985  54.75999832
C    17.43999863  32.61000061  53.88000107
C    18.78999901  32.97999954  54.10999680
C    19.82999992  32.72000122  53.18000031
C    21.11000061  33.15999985  53.39000320
C    21.51000023  33.88999939  54.54000092
C    20.53999901  34.15999985  55.47999954
C    19.22000122  33.63999939  55.31000137
C    14.96999931  32.97000122  54.55999756
C    14.27000046  33.56999969  55.63000107
C    12.89000034  33.68999863  55.77000046
C    22.93999863  34.22999954  54.87999725
H    23.27442169  33.61096191  55.71249771
H    18.38999939  34.52000046  57.02999878
H    17.13000107  32.37999725  52.87000275
H    19.69000053  32.34999847  52.15999985
H    21.86000061  32.72999954  52.72999573
H    20.68000031  34.76000214  56.38000107
H    12.34000015  34.09000015  56.60999680
H    23.50000000  34.20999908  53.93000031
H    22.98000145  35.31999969  55.02999878
S    11.82000065  32.09999847  52.22000122
C     9.17000008  31.87999916  52.88999939
C    10.42000008  32.23999786  53.30999756
C    10.76000023  33.01000214  54.47000122
C     9.70000076  33.34000015  55.28999710
C     8.38000011  32.86000061  55.08999634
C     7.27999973  33.06999969  55.97000122
C     6.03999996  32.54000092  55.70000076
C     5.73000002  32.09999847  54.38999939
C     6.77999973  32.02000046  53.50000000
C     8.14999962  32.25000000  53.80000305
C    12.18999958  33.18000031  54.66999817
C    12.86999893  32.65999985  53.54000092
C    14.25000000  32.50000000  53.44999695
C     4.38000011  31.48999977  54.09999847
H     3.85448027  32.13624954  53.39693832
H     8.90999985  31.34000015  51.97999954
H     9.90999985  33.86000061  56.22000122
H     7.44999981  33.52000046  56.95000076
H     5.29999971  32.62000275  56.49000168
H     6.67000008  31.53000069  52.54000092
H    14.78000069  32.02999878  52.63000107
H     3.75999975  31.34000015  54.99000168
H     4.48000002  30.45999908  53.74000168
S    11.76000023  30.12000084  49.47999954
C     9.13999939  29.53000069  50.22999573
C    10.47999954  29.47000122  50.52000046
C    10.95999908  28.75999832  51.66999817
C    10.06000042  28.12999916  52.50999832
C     8.67999935  28.28000069  52.25000000
C     7.64999962  27.93000031  53.16999817
C     6.30000019  28.05999947  52.94000244
C     5.82000017  28.61999893  51.72000122
C     6.76999998  29.09000015  50.84999847
C     8.17000008  28.92999840  51.06999969
C    12.42000008  28.75999832  51.72000122
C    12.96000004  29.48999786  50.63000107
C    14.26000023  29.97999954  50.61999893
C     4.34999990  28.87000084  51.46999741
H     3.99252796  28.42673492  50.54057312
H     8.80000019  30.05000114  49.33000183
H    10.43000031  27.90999985  53.50999832
H     8.01000023  27.49000168  54.09000015
H     5.65000010  27.73999977  53.75000000
H     6.35999966  29.64999962  50.00999832
H    14.57999992  30.69999886  49.87999725
H     3.73000002  28.47999954  52.29000092
H     4.25000000  29.96000099  51.45000076
S    15.78999996  28.39999962  54.02999878
C    18.38000107  29.04000092  53.18999863
C    17.02000046  29.10000038  52.95999908
C    16.51000023  29.75000000  51.79000092
C    17.32999992  30.27000046  50.80999756
C    18.72999954  30.20999908  51.00999832
C    19.68000031  30.72000122  50.07999802
C    21.02999878  30.55999947  50.24000168
C    21.47999954  29.77999878  51.33999634
C    20.62999916  29.37000084  52.34000397
C    19.22999954  29.56000137  52.18999863
C    15.06000042  29.57999992  51.70000076
C    14.57999992  28.82999802  52.80000305
C    13.23999977  28.46999931  52.81000137
C    22.96999931  29.63999939  51.53999710
H    23.30309868  29.98727226  52.51802826
H    18.73999977  28.40999985  54.00000000
H    16.90000153  30.56999969  49.86000061
H    19.26000023  31.17000198  49.16999817
H    21.70000076  30.98999977  49.50000000
H    21.04999924  28.95999908  53.26000214
H    12.81000042  27.96999931  53.68000031
H    23.57000160  30.06999969  50.72999954
H    23.05000114  28.54999924  51.51000214
