96

S    15.03000069  33.52999878  56.98999786
C    17.75000000  33.65000153  56.26999664
C    16.44000053  33.40999985  55.91999817
C    16.03999901  32.92000198  54.64000320
C    17.07999992  32.70000076  53.75000000
C    18.43000031  32.97999954  54.06999969
C    19.47000122  32.88000107  53.09999847
C    20.79999924  33.11000061  53.34000015
C    21.14999962  33.61999893  54.61999893
C    20.17000008  33.91999817  55.54000092
C    18.81000137  33.54000092  55.34000015
C    14.60000038  32.77000046  54.45999908
C    13.94999981  33.25999832  55.61000061
C    12.56000042  33.36000061  55.66999817
C    22.60999870  33.88999939  54.86999893
H    22.98057556  33.25574493  55.67528915
H    17.95999908  34.04999924  57.25000000
H    16.87999916  32.37999725  52.72999573
H    19.25000000  32.47999954  52.11000061
H    21.56999969  32.99000168  52.57999802
H    20.45999908  34.38999939  56.47999573
H    12.03999996  33.62999725  56.58000183
H    23.21000099  33.59999847  53.99000168
H    22.72000122  34.97999954  55.00999832
S    11.31000042  31.70000076  52.29999924
C     8.60000038  31.86000061  53.04999924
C     9.92000008  32.16999817  53.29999924
C    10.38000011  32.79000092  54.50000000
C     9.43000031  32.95000076  55.48999786
C     8.06999969  32.61000061  55.28999710
C     7.11000013  32.85000229  56.31999969
C     5.78999996  32.52999878  56.10000229
C     5.32000017  31.93000031  54.89999771
C     6.24000025  31.70999908  53.89999771
C     7.60999966  32.06999969  54.03999710
C    11.80999947  33.06999969  54.52000046
C    12.46000099  32.50000000  53.40000153
C    13.85000038  32.43999863  53.31999969
C     3.88999987  31.45000076  54.77000427
H     3.44152236  31.87712097  53.87304306
H     8.30999947  31.30000114  52.15999985
H     9.75000000  33.54999924  56.32999802
H     7.50999975  33.18999863  57.28000259
H     5.07999992  32.54000092  56.91999817
H     6.05999994  31.18000031  52.97000122
H    14.14999962  31.97999954  52.38999939
H     3.24000001  31.70999908  55.61000061
H     3.96000004  30.36000061  54.81999969
S    15.22999954  34.06999969  51.11999893
C    17.89999962  33.77000046  50.43000031
C    16.59000015  33.45000076  50.15999603
C    16.17000008  32.93000031  48.88999939
C    17.13000107  32.68000031  47.93000031
C    18.45999908  33.13000107  48.09999847
C    19.52999878  32.93999863  47.18000031
C    20.82999992  33.29999924  47.43999863
C    21.17000198  33.90000153  48.68000031
C    20.19000053  34.04000092  49.64000320
C    18.85000038  33.63999939  49.38999939
C    14.72000027  32.86000061  48.77999878
C    14.09999943  33.36000061  49.94999695
C    12.71000004  33.50000000  49.97000122
C    22.63000107  34.15000153  48.97999573
H    23.02770805  33.45401382  49.71859360
H    18.19000053  34.29999924  51.32999802
H    16.87000084  32.33000183  46.93000031
H    19.29999924  32.44999695  46.23000336
H    21.63999939  33.06000137  46.76000214
H    20.36999893  34.41999817  50.63999939
H    12.23999977  33.88000107  50.86999893
H    23.16999817  34.13000107  48.02000046
H    22.73999977  35.15999985  49.38999939
S    11.50000000  32.16999817  46.40999603
C     8.78999996  32.33000183  47.11000061
C    10.11000061  32.54000092  47.43999863
C    10.50000000  33.04999924  48.72000122
C     9.47000027  33.34000015  49.61000061
C     8.09000015  33.15000153  49.34999847
C     7.03000021  33.31000137  50.28999710
C     5.73999977  32.95999908  50.00000000
C     5.40999985  32.47000122  48.69999695
C     6.40999985  32.34000015  47.77000046
C     7.76999998  32.65000153  48.04000092
C    11.94000053  33.13999939  48.87000275
C    12.61000061  32.61000061  47.72999573
C    13.99000072  32.52999878  47.63000107
C     3.98999977  32.06999969  48.36000061
H     3.54956937  32.72354507  47.60700607
H     8.42000008  31.87999916  46.19999695
H     9.68999958  33.58000183  50.63999939
H     7.37999964  33.58000183  51.27999878
H     4.90999985  32.81999969  50.68000031
H     6.14000034  31.93000031  46.79999924
H    14.45000076  32.34999847  46.65999985
H     3.53999996  32.13999939  49.36000061
H     3.96000004  31.02999878  48.02000046
