96

S    15.13000011  33.84999847  56.95999908
C    17.88999939  33.81000137  56.43000031
C    16.61000061  33.52000046  56.04000092
C    16.28999901  33.13000107  54.69999695
C    17.26000023  32.95999908  53.73000336
C    18.60000038  33.20000076  54.09999847
C    19.68000031  33.15000153  53.16999817
C    20.97999954  33.39999771  53.54000092
C    21.22999954  33.94000244  54.82999802
C    20.22999954  33.95999908  55.77999878
C    18.89999962  33.58000183  55.45999908
C    14.85999966  33.13999939  54.45000076
C    14.06999969  33.54000092  55.56999969
C    12.69000053  33.65999985  55.63999939
C    22.62000084  34.47000122  55.10000229
H    23.12481499  33.86564255  55.85367203
H    18.20000076  34.24000168  57.38999939
H    16.97999954  32.88000107  52.68000031
H    19.45999908  32.93999863  52.11999893
H    21.84000015  33.25999832  52.90000153
H    20.35000038  34.45999908  56.73999786
H    12.20000076  33.90999985  56.56999969
H    23.11000061  34.48999786  54.12000275
H    22.62000084  35.51000214  55.45999908
S    11.64999962  32.36999893  52.04000092
C     8.92000008  32.23999786  52.83000183
C    10.22999954  32.55000305  53.09000015
C    10.54999924  33.11999893  54.36999893
C     9.53999996  33.36999893  55.27999878
C     8.19999981  32.95000076  55.08999634
C     7.17999983  33.25999832  56.03000259
C     5.88000011  33.02000046  55.66999817
C     5.56999969  32.34999847  54.45000076
C     6.53999996  32.09999847  53.52000427
C     7.90000010  32.40000153  53.80000305
C    11.98999977  33.29000092  54.47999954
C    12.72999954  32.95000076  53.31999969
C    14.11999893  32.81999969  53.30999756
C     4.13000011  32.00999832  54.13000107
H     3.60995817  32.65827179  53.42473602
H     8.55000019  31.83000183  51.88999939
H     9.78999996  33.84000015  56.23000336
H     7.36999989  33.63999939  57.02999878
H     5.05999994  33.36999893  56.29000092
H     6.21999979  31.65999985  52.56999969
H    14.73999977  32.63999939  52.43999863
H     3.54999995  32.09000015  55.06000137
H     4.11999989  30.96999931  53.77999878
S    11.97000027  30.46999931  49.18000031
C     9.35000038  29.89999962  49.86999893
C    10.67999935  29.64999962  50.07999802
C    11.13000011  28.97999954  51.25999832
C    10.21999931  28.54000092  52.21000290
C     8.84000015  28.78999901  52.02000046
C     7.85000038  28.39999962  52.95999908
C     6.52999973  28.59999847  52.67000198
C     6.03999996  29.30000114  51.52999878
C     7.00999975  29.71999931  50.65000153
C     8.39999962  29.41999817  50.79999924
C    12.55000019  29.23000145  51.38999939
C    13.17999935  30.00999832  50.38999939
C    14.52000046  30.39999962  50.45000076
C     4.56999969  29.60000038  51.40999603
H     4.10669947  29.10818863  50.55467606
H     8.89999962  30.40999985  49.01000214
H    10.38000011  27.93000031  53.09000015
H     8.23999977  27.81999969  53.80000305
H     5.75000000  28.45999908  53.40999985
H     6.72999954  30.45000076  49.89999771
H    14.93000031  30.72999954  49.50000000
H     4.03999996  29.33000183  52.32999802
H     4.53999996  30.69000053  51.29000092
S    15.81999969  28.62999916  53.81000137
C    18.44000053  29.15999985  53.13000107
C    17.11000061  29.40000153  52.87000275
C    16.73999977  30.09000015  51.66999817
C    17.71000099  30.58000183  50.81999969
C    19.07999992  30.32999992  51.05999756
C    20.13000107  30.95000076  50.31999969
C    21.45999908  30.66999817  50.52999878
C    21.78999901  29.93000031  51.69000244
C    20.82999992  29.33000183  52.47000122
C    19.45000076  29.60000038  52.23999786
C    15.29000092  30.05000114  51.56999969
C    14.68999958  29.27000046  52.58999634
C    13.38000107  28.81999969  52.44999695
C    23.21000099  29.47000122  51.95000076
H    23.63031006  30.03278732  52.78349304
H    18.70000076  28.50000000  53.95000076
H    17.46000099  31.09000015  49.88999939
H    19.79999924  31.51000023  49.45000076
H    22.17000008  30.93000031  49.75000000
H    21.12999916  28.75000000  53.34999847
H    13.09999943  28.02999878  53.13000107
H    23.85999870  29.79000092  51.12999725
H    23.16999817  28.38000107  52.11999893
