96

S    15.10000038  33.70999908  57.37999725
C    17.79000092  33.77999878  56.70999908
C    16.52000046  33.34999847  56.38999939
C    16.22999954  32.95999908  55.05000305
C    17.23999977  32.88000107  54.10999680
C    18.54999924  33.27999878  54.47000122
C    19.56999969  33.16999817  53.48999786
C    20.86999893  33.46999741  53.85000229
C    21.18000031  33.90999985  55.15999603
C    20.22999954  33.95999908  56.14999771
C    18.88000107  33.68000031  55.80999756
C    14.78999996  32.86999893  54.84000397
C    14.07999992  33.25999832  56.00000000
C    12.69000053  33.29000092  56.02000427
C    22.65000153  34.15999985  55.44000244
H    22.94228554  33.56117249  56.30260086
H    17.94999886  34.17000198  57.70999908
H    17.13000107  32.31999969  53.18000031
H    19.47000122  32.65000153  52.54000092
H    21.61999893  33.27000046  53.09000015
H    20.36999893  34.27000046  57.18000031
H    12.17000008  33.67000198  56.90000153
H    23.25000000  34.00000000  54.54000092
H    22.86999893  35.22999954  55.59999847
S    11.64999962  32.34999847  52.31999969
C     8.94999981  32.07999802  52.98999786
C    10.21999931  32.43999863  53.36000061
C    10.47999954  32.85000229  54.71000290
C     9.42000008  33.11000061  55.56000137
C     8.09000015  32.85000229  55.15999603
C     6.94000006  32.99000168  55.98999786
C     5.66999960  32.70000076  55.54999924
C     5.44000053  32.23999786  54.22999954
C     6.52999973  31.97999954  53.43000031
C     7.83999968  32.36999893  53.81999969
C    11.92000008  32.95999908  54.88999939
C    12.68000031  32.68000031  53.72000122
C    14.06000042  32.55000305  53.68999863
C     4.01999998  31.88999939  53.82999802
H     3.74225140  32.23184204  52.83295441
H     8.61999989  31.55999947  52.09000015
H     9.65999985  33.44000244  56.56999969
H     7.02000046  33.18000031  57.04999924
H     4.84000015  32.68000031  56.25000000
H     6.38000011  31.47000122  52.48000336
H    14.67000008  32.42000198  52.80000305
H     3.37000012  32.47000122  54.48999786
H     3.84999990  30.82999992  54.06000137
S    11.39000034  30.19000053  49.25000000
C     8.75000000  29.75000000  49.93000031
C    10.06999969  29.51999855  50.24000168
C    10.48999977  29.03000069  51.51000214
C     9.52000046  28.39999962  52.28000259
C     8.14999962  28.57000160  51.97999954
C     7.17999983  28.02999878  52.87000275
C     5.86999989  28.02000046  52.43999863
C     5.47999954  28.71999931  51.26999664
C     6.37000036  29.31999969  50.40999985
C     7.73999977  29.25000000  50.77999878
C    11.92999935  29.13000107  51.65999985
C    12.53000069  29.80999947  50.56000137
C    13.88000011  30.12000084  50.51000214
C     4.00999975  28.87000084  50.96000290
H     3.64977002  28.00120926  50.40906143
H     8.43999958  30.27000046  49.02000046
H     9.77999973  27.95000076  53.23999786
H     7.40999985  27.57999802  53.82999802
H     5.13000011  27.40999985  52.94000244
H     5.92999983  29.89000130  49.59000015
H    14.32000065  30.62999916  49.65999985
H     3.42000008  29.05999947  51.86999893
H     3.79999995  29.77999878  50.40000153
S    15.26000023  28.52999878  53.92000198
C    17.86999893  29.18000031  53.43000031
C    16.55999947  29.37000084  53.04999924
C    16.06999969  29.93999863  51.83000183
C    17.02000046  30.43999863  50.97000122
C    18.38999939  30.38999939  51.33999634
C    19.43000031  31.01000023  50.59000015
C    20.76999855  30.96999931  50.93000031
C    21.12999916  30.20999908  52.06999969
C    20.20000076  29.56999969  52.84999847
C    18.81999969  29.70999908  52.52999878
C    14.61999989  29.84000015  51.66999817
C    14.06999969  29.07999992  52.71999741
C    12.74000072  28.67000198  52.70000076
C    22.60000038  29.99000168  52.34000397
H    23.01156235  30.45833206  53.23408508
H    18.09000015  28.54000092  54.27999878
H    16.73999977  30.98999977  50.07999802
H    19.11999893  31.56999969  49.71000290
H    21.54000092  31.27000046  50.22999573
H    20.55000114  29.02000046  53.72000122
H    12.32999992  28.05999947  53.50999832
H    23.13999939  30.29999924  51.44000244
H    22.72999954  28.90000153  52.36999893
