96

S    15.39000034  33.88000107  57.25999832
C    18.12999916  33.81999969  56.47999573
C    16.80999947  33.54000092  56.25000000
C    16.35000038  33.00000000  55.00999832
C    17.31999969  32.79999924  54.03999710
C    18.68999863  33.09999847  54.25000000
C    19.70999908  33.06000137  53.26000214
C    21.04000092  33.27999878  53.52000427
C    21.48999977  33.77000046  54.77000427
C    20.52999878  33.87000275  55.75000000
C    19.14999962  33.58000183  55.52999878
C    14.89999962  32.92000198  54.84000397
C    14.23999977  33.39999771  55.98999786
C    12.84999943  33.50000000  56.09000397
C    22.93999863  34.10000229  55.06999969
H    23.26706314  33.63784790  56.00141907
H    18.45999908  34.20999908  57.43999863
H    17.05000114  32.40000153  53.06999969
H    19.32999992  32.69000244  52.30999756
H    21.73000145  32.97000122  52.74000168
H    20.81000137  34.43000031  56.63999939
H    12.30000019  33.72999954  56.98999786
H    23.61999893  33.82999802  54.25000000
H    22.92000008  35.18000031  55.21999741
S    11.73999977  32.14999771  52.50000000
C     9.09000015  31.78999901  53.34999847
C    10.31000042  32.38999939  53.52000427
C    10.65999985  33.02999878  54.75999832
C     9.61000061  33.20000076  55.63999939
C     8.28999996  32.70000076  55.50000000
C     7.17999983  32.99000168  56.33999634
C     5.89999962  32.55000305  56.11000061
C     5.69000006  31.80999947  54.91000366
C     6.71999979  31.50000000  54.05000305
C     8.05000019  31.93000031  54.31000137
C    12.09000015  33.20000076  54.94999695
C    12.77999973  32.77000046  53.79000092
C    14.14999962  32.54000092  53.72000122
C     4.30000019  31.25999832  54.68000031
H     3.80117893  31.76594734  53.85338593
H     8.96000004  31.25000000  52.42000198
H     9.75000000  33.81000137  56.52999878
H     7.34000015  33.52999878  57.28000259
H     5.09000015  32.56999969  56.83000183
H     6.48000002  30.94000053  53.15000153
H    14.55000019  32.22999954  52.76000214
H     3.79999995  31.31999969  55.65999985
H     4.33999968  30.17999840  54.48999786
S    15.98999977  34.45000076  51.07999802
C    18.71999931  34.38000107  50.43000031
C    17.40999985  34.22999954  50.02999878
C    16.97000122  33.75999832  48.75999832
C    17.97000122  33.63999939  47.81000137
C    19.34000015  33.91999817  48.02000046
C    20.31999969  33.87000275  46.98999786
C    21.60000038  34.15000153  47.41000366
C    21.94000053  34.64999771  48.68999863
C    20.96999931  34.79999924  49.65999985
C    19.67000008  34.29999924  49.36999893
C    15.52000046  33.62999725  48.60000229
C    14.85000038  33.95000076  49.80999756
C    13.47000027  33.95000076  49.93000031
C    23.29999924  35.22999954  49.01000214
H    23.92437172  34.49210358  49.51375580
H    18.95000076  34.76000214  51.42000198
H    17.59000015  33.31000137  46.84999847
H    20.06000137  33.52999878  45.98999786
H    22.39000130  34.26000214  46.66999817
H    21.11000061  35.22999954  50.65000153
H    12.97999954  34.20000076  50.86999893
H    23.85999870  35.54000092  48.11999893
H    23.23999786  36.15000153  49.59999847
S    12.18000031  32.68000031  46.44000244
C     9.52000046  32.57999802  47.18000031
C    10.80999947  32.92000198  47.52999878
C    11.21999931  33.50000000  48.77999878
C    10.26000023  33.43000031  49.77000427
C     8.93999958  32.99000168  49.54000092
C     7.94000053  33.09000015  50.54000092
C     6.60000038  32.80999756  50.34000015
C     6.24000025  32.37999725  49.03999710
C     7.16000032  32.30999756  48.02000046
C     8.53999996  32.63999939  48.20000076
C    12.67000008  33.65000153  48.82999802
C    13.35999966  33.18999863  47.67000198
C    14.73999977  33.18999863  47.52999878
C     4.79999971  32.06999969  48.68999863
H     4.43093443  32.63069534  47.83121490
H     9.27999973  32.47000122  46.12999725
H    10.57000065  33.72000122  50.77000046
H     8.19999981  33.41999817  51.55000305
H     5.88000011  33.00000000  51.12999725
H     6.94000006  32.06000137  46.98999786
H    15.19000053  32.92000198  46.56999969
H     4.21000004  32.13000107  49.61000061
H     4.88999987  30.98999977  48.50999832
