96

S    15.01999950  33.52999878  57.48000336
C    17.76000023  33.82999802  56.75000000
C    16.48999977  33.34999847  56.51000214
C    16.20000076  32.90999985  55.18000031
C    17.20999908  32.86999893  54.22999954
C    18.52000046  33.34000015  54.47999954
C    19.55000114  33.23999786  53.50000000
C    20.82999992  33.68000031  53.75000000
C    21.02999878  34.24000168  55.04000092
C    20.10000038  34.36999893  56.04000092
C    18.81999969  33.81000137  55.79999924
C    14.75999928  32.70999908  55.00999832
C    13.96000004  33.04000092  56.13999939
C    12.58999920  33.22000122  56.04999924
C    22.47999954  34.61000061  55.28999710
H    22.97874451  33.96875763  56.01674271
H    17.95999908  34.31999969  57.69000244
H    16.97999954  32.56999969  53.20999908
H    19.38999939  32.70999908  52.56000137
H    21.57999992  33.52000046  52.97999954
H    20.40999985  34.79000092  57.00000000
H    11.90000057  33.40999985  56.86999893
H    23.02999878  34.69000244  54.34000015
H    22.44999886  35.63999939  55.65999985
S    11.75000000  32.13000107  52.35000229
C     8.97000027  32.11999893  52.83000183
C    10.25000000  32.43999863  53.22999954
C    10.52000046  32.72999954  54.61000061
C     9.52000046  32.61000061  55.54999924
C     8.19999981  32.36000061  55.10000229
C     7.09000015  32.37999725  56.00000000
C     5.82000017  32.09999847  55.58000183
C     5.51999998  31.76000214  54.22999954
C     6.54999971  31.77000046  53.31999969
C     7.88999987  32.04999924  53.73000336
C    11.94000053  33.01000214  54.82999802
C    12.75000000  32.63999939  53.73000336
C    14.13000011  32.50999832  53.77999878
C     4.07999992  31.47999954  53.85000229
H     3.68165755  32.07040024  53.02486420
H     8.78000069  31.71999931  51.84000015
H     9.72999954  32.95999908  56.56000137
H     7.31999969  32.65999985  57.02999878
H     4.94999981  32.11000061  56.24000168
H     6.48000002  31.53000069  52.27000427
H    14.65999985  32.30999756  52.84999847
H     3.48000002  31.80999947  54.71000290
H     3.86000013  30.45000076  53.54999924
S    11.64000034  30.22000122  49.59999847
C     9.00000000  29.57999992  50.14999771
C    10.31000042  29.59000015  50.59000015
C    10.77000046  28.94000053  51.77000046
C     9.86999989  28.43000031  52.69000244
C     8.50000000  28.50000000  52.35000229
C     7.50999975  27.84000015  53.13999939
C     6.21999979  27.79999924  52.67000198
C     5.78999996  28.45999908  51.47999573
C     6.71999979  29.03000069  50.65000153
C     8.07999992  29.02000046  51.07999802
C    12.22000027  28.80000114  51.81999969
C    12.79999924  29.47000122  50.72000122
C    14.06999969  30.05000114  50.75000000
C     4.40000010  28.22000122  50.91999817
H     3.98685789  28.81834412  50.10796356
H     8.59000015  30.03000069  49.25000000
H    10.29000092  27.86000061  53.52000427
H     7.88999987  27.26000023  53.95999908
H     5.65999985  27.00000000  53.15000153
H     6.53999996  29.37999916  49.64000320
H    14.37000084  30.86999893  50.11000061
H     4.32000017  27.18000031  50.59000015
H     3.84999990  28.32999992  51.86000061
S    15.65999985  28.38999939  53.96999741
C    18.19000053  29.36000061  53.47999954
C    16.84999847  29.43000031  53.15999985
C    16.27000046  30.15000153  52.06999969
C    17.18000031  30.78000069  51.24000168
C    18.56999969  30.59999847  51.40999603
C    19.55000114  31.02000046  50.45999908
C    20.88999939  30.88000107  50.72999954
C    21.38999939  30.13000107  51.83000183
C    20.48000145  29.65999985  52.76000214
C    19.10000038  29.97999954  52.58999634
C    14.89999962  29.71999931  51.83000183
C    14.39000034  28.82999802  52.81000137
C    13.07999992  28.36999893  52.84000015
C    22.82999992  29.68000031  51.91999817
H    23.38705635  30.20134735  52.69844818
H    18.53000069  28.82999802  54.36000061
H    16.82999992  31.21000099  50.30000305
H    19.11000061  31.51000023  49.59999847
H    21.65999985  31.38000107  50.15999603
H    20.75000000  28.88999939  53.47000122
H    12.76000023  27.84000015  53.73000336
H    23.34000015  29.77000046  50.94999695
H    22.88999939  28.61000061  52.15000153
