96

S    15.31000042  33.90000153  56.86999893
C    18.00000000  33.63999939  56.33999634
C    16.72000122  33.31000137  55.96000290
C    16.42000008  32.72999954  54.68000031
C    17.47999954  32.52999878  53.81999969
C    18.81999969  32.85000229  54.15000153
C    19.93000031  32.65000153  53.27999878
C    21.19999886  32.95000076  53.72000122
C    21.48999977  33.59999847  54.93999863
C    20.40999985  33.75999832  55.79000092
C    19.07999992  33.38999939  55.45999908
C    14.98000050  32.63999939  54.51000214
C    14.27999973  33.27000046  55.56999969
C    12.89000034  33.38000107  55.63000107
C    22.88000107  34.01000214  55.37000275
H    23.37951660  33.32495117  56.05504990
H    18.11000061  34.20999908  57.25999832
H    17.15999985  32.16999817  52.84999847
H    19.78000069  32.18000031  52.30999756
H    22.06000137  32.62000275  53.13999939
H    20.50000000  34.34999847  56.70000076
H    12.51000023  33.84999847  56.52999878
H    23.52999878  34.11999893  54.50000000
H    22.86999893  35.02999878  55.77000046
S    11.65999985  32.00999832  52.18000031
C     8.97999954  31.73999977  52.97999954
C    10.22999954  32.25000000  53.20999908
C    10.57999992  32.83000183  54.47000122
C     9.50000000  33.09999847  55.28999710
C     8.17000008  32.68000031  55.05000305
C     7.00999975  32.95000076  55.84000015
C     5.77000046  32.45999908  55.54000092
C     5.52999973  31.59000015  54.43999863
C     6.58999968  31.40000153  53.59000397
C     7.88000011  31.90999985  53.87000275
C    12.02000046  32.93999863  54.61999893
C    12.75000000  32.47000122  53.50000000
C    14.13000011  32.30999756  53.44999695
C     4.15999985  31.07999992  54.06000137
H     3.76872158  31.68470383  53.24187088
H     8.85000038  31.07000160  52.14000320
H     9.68999958  33.56999969  56.25000000
H     7.09999990  33.67000198  56.65000153
H     4.92000008  32.70000076  56.17000198
H     6.44999981  31.05999947  52.56000137
H    14.59000015  31.90000153  52.55000305
H     3.56999993  31.24000168  54.97000122
H     4.38000011  30.06999969  53.69999695
S    15.81999969  34.29999924  51.20999908
C    18.53000069  33.98999786  50.77000046
C    17.25000000  33.72999954  50.33000183
C    16.93000031  33.09999847  49.09000015
C    18.00000000  32.84000015  48.25000000
C    19.29999924  33.31000137  48.55999756
C    20.40999985  33.06000137  47.70000076
C    21.70000076  33.39999771  48.02999878
C    21.94999886  34.02000046  49.27999878
C    20.90999985  34.34000015  50.12000275
C    19.60000038  33.87000275  49.85000229
C    15.48999977  33.04999924  48.92000198
C    14.73999977  33.65999985  49.95999908
C    13.38000107  33.95000076  49.93000031
C    23.31000137  34.61999893  49.54000092
H    23.97397041  33.87749481  49.98264313
H    18.71000099  34.50999832  51.70999908
H    17.94999886  32.20000076  47.36999893
H    20.12000084  32.90999985  46.65999985
H    22.39999962  33.56999969  47.21000290
H    21.04000092  34.77999878  51.11000061
H    12.74000072  34.29000092  50.73999786
H    23.78999901  34.97999954  48.61999893
H    23.16999817  35.54000092  50.13000107
S    12.38000011  32.11999893  46.52999878
C     9.68000031  32.19000244  47.22999954
C    10.97000027  32.61000061  47.49000168
C    11.28999901  33.34999847  48.67000198
C    10.29000092  33.63999939  49.59000015
C     8.97000027  33.18999863  49.38000107
C     7.90000010  33.31999969  50.31000137
C     6.57999992  32.97999954  50.08999634
C     6.34000015  32.29000092  48.88000107
C     7.31999969  32.04999924  47.95000076
C     8.65999985  32.49000168  48.15999985
C    12.72999954  33.47999954  48.77999878
C    13.45000076  32.85000229  47.72999573
C    14.82999992  32.65999985  47.75000000
C     4.92000008  31.84999847  48.54999924
H     4.49284124  32.52633286  47.80958939
H     9.44000053  31.65999985  46.31000137
H    10.57999992  34.08000183  50.54999924
H     8.18000031  33.65999985  51.31000137
H     5.88999987  33.09999847  50.91999817
H     7.05999947  31.61000061  46.98999786
H    15.34000015  32.27000046  46.86999893
H     4.13999987  31.83000183  49.31999969
H     4.99000025  30.81999969  48.20000076
