96

S    15.48999977  33.55999756  56.90000153
C    18.12999916  34.11000061  56.07999802
C    16.88999939  33.58000183  55.80999756
C    16.55999947  33.00000000  54.54999924
C    17.56999969  32.80999756  53.61999893
C    18.89000130  33.20000076  53.95999908
C    19.93999863  33.04000092  53.00000000
C    21.18999863  33.52000046  53.27999878
C    21.54000092  34.15000153  54.50000000
C    20.53999901  34.29000092  55.45000076
C    19.19999886  33.91999817  55.17000198
C    15.14000034  32.76000214  54.34000015
C    14.47000027  33.25000000  55.47999954
C    13.07999992  33.39999771  55.52000046
C    22.95999908  34.47999954  54.88999939
H    23.36537743  33.79725647  55.63674927
H    18.45999908  34.48999786  57.04999924
H    17.22999954  32.62000275  52.61000061
H    19.68000031  32.38999939  52.16999817
H    21.94999886  33.38000107  52.51999664
H    20.63999939  34.71999741  56.44000244
H    12.60000038  33.47999954  56.49000168
H    23.57000160  34.43000031  53.96999741
H    22.95000076  35.47999954  55.34000015
S    11.92999935  32.50999832  51.83000183
C     9.26999950  32.19000244  52.60000229
C    10.54999924  32.59000015  52.94000244
C    10.85999966  32.97999954  54.27999878
C     9.85999966  32.99000168  55.24000168
C     8.52000046  32.72000122  54.86999893
C     7.44999981  32.73999786  55.81999969
C     6.24000025  32.15999985  55.52999878
C     5.95000029  31.68000031  54.22999954
C     6.93000031  31.75000000  53.27000046
C     8.21000004  32.30999756  53.52000427
C    12.30000019  33.09999847  54.40000153
C    13.00000000  32.72000122  53.22999954
C    14.37000084  32.44999695  53.20999908
C     4.59000015  31.04000092  54.02999878
H     4.11163521  31.73255730  53.33744431
H     8.97999954  31.88999939  51.59000015
H    10.19000053  33.20000076  56.25000000
H     7.68000031  32.99000168  56.84999847
H     5.47999954  32.13999939  56.31000137
H     6.72999954  31.54999924  52.22000122
H    14.92000008  32.31999969  52.28000259
H     3.98999977  30.94000053  54.94999695
H     4.59999990  30.03000069  53.61000061
S    15.90999985  34.56000137  51.11999893
C    18.61999893  34.59000015  50.45000076
C    17.35000038  34.18999863  50.13999939
C    16.94000053  33.79000092  48.81999969
C    18.00000000  33.54999924  47.95000076
C    19.36000061  33.80000305  48.25000000
C    20.38000107  33.77000046  47.25999832
C    21.64999962  34.22000122  47.56000137
C    22.03000069  34.69000244  48.83999634
C    21.02000046  34.79000092  49.77000427
C    19.68000031  34.38000107  49.52999878
C    15.50000000  33.82999802  48.64999771
C    14.78000069  34.29000092  49.78000259
C    13.38999939  34.43000031  49.81999969
C    23.48999977  35.00000000  49.12000275
H    23.92449188  34.43729782  49.94624710
H    18.84000015  35.16999817  51.35000229
H    17.79000092  33.36999893  46.90000153
H    20.12000084  33.56999969  46.23000336
H    22.27999878  34.11000061  46.69000244
H    21.18000031  35.13999939  50.77999878
H    12.97000027  34.63000107  50.79999924
H    24.04999924  34.88999939  48.18999863
H    23.61999893  36.05999756  49.36999893
S    12.38999939  32.95999908  46.25000000
C     9.68999958  32.76000214  46.95000076
C    10.93999958  33.27000046  47.22999954
C    11.31000042  33.81999969  48.50000000
C    10.26000023  34.04999924  49.36999893
C     8.94999981  33.61000061  49.08000183
C     7.86000013  33.79000092  49.98000336
C     6.60000038  33.29000092  49.75000000
C     6.34000015  32.50999832  48.59000397
C     7.36999989  32.23999786  47.70999908
C     8.64999962  32.81999969  47.90999985
C    12.72999954  34.11000061  48.62999725
C    13.45000076  33.56999969  47.54000092
C    14.80999947  33.27999878  47.56000137
C     4.92999983  32.02999878  48.33000183
H     4.52364397  32.40071106  47.38896561
H     9.48999977  32.27999878  46.00000000
H    10.47000027  34.43999863  50.35999680
H     8.05000019  34.10000229  51.00999832
H     5.75000000  33.34000015  50.41999817
H     7.20000029  31.75000000  46.76000214
H    15.34000015  32.78000259  46.76000214
H     4.44999981  32.36000061  49.26000214
H     4.92000008  30.94000053  48.43000031
