96

S    15.31000042  33.65999985  57.14000320
C    17.97999954  33.84000015  56.38999939
C    16.72000122  33.39999771  56.07999802
C    16.36000061  32.95000076  54.77000427
C    17.43000031  32.66999817  53.94000244
C    18.76000023  33.04000092  54.26000214
C    19.86999893  32.81999969  53.40000153
C    21.14000130  33.22000122  53.70999908
C    21.47000122  33.84000015  54.93999863
C    20.40999985  34.10000229  55.77999878
C    19.09000015  33.62999725  55.52999878
C    14.91000080  32.83000183  54.71000290
C    14.17000008  33.22000122  55.84999847
C    12.77999973  33.22000122  55.87999725
C    22.86999893  34.25000000  55.34999847
H    23.16918945  33.78696823  56.29030991
H    18.17000008  34.34000015  57.34000397
H    17.20000076  32.30999756  52.94000244
H    19.70999908  32.34000015  52.43000031
H    21.93000031  33.22000122  52.95999908
H    20.65000153  34.45000076  56.77999878
H    12.31999969  33.47999954  56.84000015
H    23.59999847  34.01000214  54.56999969
H    22.86999893  35.34000015  55.45000076
S    11.65999985  32.09999847  52.23999786
C     8.93000031  32.14999771  52.87000275
C    10.22999954  32.36000061  53.26000214
C    10.59999943  32.88000107  54.54999924
C     9.56999969  33.09999847  55.44000244
C     8.23000050  32.80999756  55.08999634
C     7.16000032  32.84000015  56.02000427
C     5.86000013  32.72999954  55.58000183
C     5.47999954  32.31999969  54.27000046
C     6.51000023  32.16999817  53.36999893
C     7.86000013  32.37999725  53.76999664
C    12.03999996  32.92000198  54.72999954
C    12.76000023  32.56000137  53.55999756
C    14.14999962  32.57999802  53.55999756
C     4.05000019  31.97999954  53.92000198
H     3.63267589  32.51049805  53.06413269
H     8.88000011  31.64999962  51.90999985
H     9.75000000  33.38999939  56.47999573
H     7.37999964  33.13000107  57.04000092
H     5.09999990  33.00000000  56.30000305
H     6.25999975  31.80999947  52.36999893
H    14.73000050  32.37999725  52.67000198
H     3.44000006  32.26000214  54.78000259
H     4.01999998  30.90999985  53.68999863
S    11.72000027  30.22000122  49.22000122
C     9.01000023  29.79999924  50.02999878
C    10.36000061  29.60000038  50.19000244
C    10.81999969  28.88999939  51.33999634
C     9.89999962  28.35000038  52.22999954
C     8.52000046  28.59999847  52.09000015
C     7.59999990  27.82999992  52.85999680
C     6.25000000  27.78000069  52.57999802
C     5.82000017  28.52999878  51.45999908
C     6.63999987  29.36000061  50.72000122
C     8.03999996  29.36000061  50.96000290
C    12.25999928  28.94000053  51.50000000
C    12.89000034  29.61000061  50.40999985
C    14.22000027  30.00000000  50.47999954
C     4.32000017  28.61999893  51.26999664
H     3.89066458  28.63431168  50.26821518
H     8.63000011  30.29000092  49.13000107
H    10.21999931  27.69000053  53.04000092
H     8.07999992  27.17000008  53.56999969
H     5.59000015  27.11000061  53.11000061
H     6.26999950  30.02000046  49.93999863
H    14.68999958  30.59000015  49.69999695
H     3.96000004  27.72999954  51.79999924
H     4.00999975  29.51999855  51.81000137
S    15.52999973  28.52000046  53.93000031
C    18.22999954  29.04999924  53.26000214
C    16.87999916  29.14999962  52.97000122
C    16.42000008  29.71999931  51.73999786
C    17.35999870  30.30999947  50.91999817
C    18.75000000  30.36000061  51.19999695
C    19.71999931  30.86000061  50.28999710
C    21.05999947  30.84000015  50.59999847
C    21.47999954  30.03999901  51.69000244
C    20.55999947  29.43000031  52.50999832
C    19.17000008  29.68000031  52.39999771
C    14.98999977  29.51999855  51.55000305
C    14.37000084  28.84000015  52.62000275
C    13.02999973  28.48999977  52.57999802
C    22.96999931  29.90999985  51.93999863
H    23.17615700  30.00241470  53.00632858
H    18.51000023  28.31000137  53.99000168
H    17.04000092  30.69000053  49.94999695
H    19.45999908  31.25999832  49.31999969
H    21.84000015  31.28999901  49.99000168
H    21.04000092  28.92000008  53.34999847
H    12.50000000  28.09000015  53.43999863
H    23.44000053  30.78000069  51.45999908
H    23.45000076  29.07999992  51.42000198
