96

S    15.14000034  33.95999908  57.15000153
C    17.77000046  34.41999817  56.37000275
C    16.54000092  33.90000153  56.05999756
C    16.21000099  33.39999771  54.75000000
C    17.19000053  33.40999985  53.77999878
C    18.48999977  33.88999939  54.06999969
C    19.55999947  33.74000168  53.13999939
C    20.81999969  34.15000153  53.50000000
C    21.12999916  34.61999893  54.79999924
C    20.12000084  34.77000046  55.72000122
C    18.78999901  34.41999817  55.37000275
C    14.77000046  33.25000000  54.66999817
C    14.01999950  33.56999969  55.83000183
C    12.64000034  33.65000153  55.93999863
C    22.56999969  34.93999863  55.13000107
H    22.99702072  34.37063599  55.95557785
H    17.92000008  34.70000076  57.41000366
H    17.12000084  33.02999878  52.76000214
H    19.34999847  33.25000000  52.18999863
H    21.52000046  33.95000076  52.69000244
H    20.32999992  34.90999985  56.77999878
H    12.13999939  33.88999939  56.88000107
H    23.15999985  34.61999893  54.27000046
H    22.65999985  36.02000046  55.34000015
S    11.51999950  32.86000061  52.25000000
C     8.82999992  32.20000076  52.93000031
C    10.06000042  32.75000000  53.23999786
C    10.44000053  33.13999939  54.56999969
C     9.40999985  33.34000015  55.47000122
C     8.09000015  32.90999985  55.19000244
C     7.03000021  33.02000046  56.12999725
C     5.75999975  32.56000137  55.84999847
C     5.45000029  32.07999802  54.54999924
C     6.48999977  31.84000015  53.68000031
C     7.79999971  32.36000061  53.88999939
C    11.85999966  33.32999802  54.82999802
C    12.58999920  33.11999893  53.62999725
C    13.97999954  33.08000183  53.53000259
C     4.07000017  31.54000092  54.20999908
H     3.56436658  32.15958023  53.46935272
H     8.71000004  31.87000084  51.90999985
H     9.64999962  33.81000137  56.42000198
H     7.32999992  33.34999847  57.11999893
H     5.03999996  32.50999832  56.65999985
H     6.21999979  31.40999985  52.71999741
H    14.46000004  32.76000214  52.60000229
H     3.45999980  31.47000122  55.12000275
H     4.07000017  30.52000046  53.81000137
S    12.15999985  30.85000038  49.27000046
C     9.50000000  30.10999870  49.73999786
C    10.82999992  30.02000046  50.10000229
C    11.28000069  29.34999847  51.27999878
C    10.36000061  28.67000198  52.05999756
C     8.98999977  28.84000015  51.76000214
C     8.01999950  28.31000137  52.64999771
C     6.67000008  28.45000076  52.41000366
C     6.21000004  29.15999985  51.26999664
C     7.11999989  29.72999954  50.40999985
C     8.52000046  29.56999969  50.59999847
C    12.65999985  29.67000008  51.58000183
C    13.30000019  30.40999985  50.54999924
C    14.65000057  30.72999954  50.59999847
C     4.74000025  29.51999855  51.19999695
H     4.27677917  28.94988060  50.39470673
H     9.21000004  30.66999817  48.85000229
H    10.60999966  28.08000183  52.94000244
H     8.38000011  27.90999985  53.59000397
H     5.92000008  28.02000046  53.06000137
H     6.76999998  30.39999962  49.62999725
H    15.06999969  31.24000168  49.72999954
H     4.32000017  29.20999908  52.15999985
H     4.55999994  30.59999847  51.13999939
S    15.98999977  29.09000015  53.92000198
C    18.65999985  29.72999954  53.27999878
C    17.30999947  29.90999985  53.08000183
C    16.81999969  30.56999969  51.90000153
C    17.77000046  30.97999954  50.97999954
C    19.15999985  30.85000038  51.20999908
C    20.10000038  31.30000114  50.24000168
C    21.42000008  31.42000008  50.59000015
C    21.88999939  30.97999954  51.86000061
C    21.04000092  30.36999893  52.75000000
C    19.64999962  30.29999924  52.44999695
C    15.38000011  30.48000145  51.77000046
C    14.77000046  29.71999931  52.80000305
C    13.45999908  29.28999901  52.67000198
C    23.31999969  31.30000114  52.25000000
H    23.66272354  30.76449585  53.13536835
H    19.06999969  29.25000000  54.16999817
H    17.40999985  31.35999870  50.01999664
H    19.77000046  31.61000061  49.25000000
H    22.10000038  31.87999916  49.87999725
H    21.47000122  30.00999832  53.68000031
H    12.90999985  28.67000198  53.37999725
H    23.29999924  32.38999939  52.43000031
H    24.02000046  31.15999985  51.42000198
