96

S    15.08999920  33.56999969  57.18000031
C    17.75000000  33.62999725  56.44000244
C    16.47999954  33.22000122  56.12999725
C    16.11999893  32.72999954  54.82999802
C    17.13000107  32.68000031  53.88999939
C    18.44000053  33.11999893  54.15999985
C    19.47000122  32.95999908  53.18999863
C    20.78000069  33.20999908  53.50000000
C    21.15999985  33.77999878  54.75000000
C    20.13999939  33.97999954  55.65999985
C    18.79999924  33.52999878  55.48999786
C    14.67000008  32.70000076  54.65999985
C    14.01999950  33.15999985  55.83000183
C    12.64000034  33.36000061  55.86000061
C    22.57999802  34.11000061  55.12000275
H    23.01897812  33.54357529  55.94131851
H    17.95999908  34.13000107  57.37999725
H    16.87000084  32.06000137  53.02999878
H    19.12999916  32.52000046  52.25000000
H    21.42999840  32.95000076  52.67000198
H    20.34000015  34.45999908  56.60999680
H    12.13000107  33.31000137  56.81999969
H    23.22999954  33.95999908  54.25000000
H    22.56000137  35.16999817  55.40000153
S    11.42000008  32.00000000  52.29000092
C     8.78999996  31.68000031  53.18999863
C    10.08999920  32.06999969  53.46000290
C    10.47000027  32.66999817  54.69999695
C     9.44999981  32.78000259  55.61999893
C     8.10000038  32.43999863  55.38999939
C     7.03000021  32.61000061  56.31999969
C     5.75000000  32.22999954  56.00000000
C     5.46000004  31.45999908  54.85000229
C     6.43000031  31.35999870  53.88000107
C     7.73000002  31.88999939  54.10999680
C    11.87999916  33.02999878  54.72999954
C    12.51999950  32.56999969  53.55999756
C    13.90999985  32.42000198  53.52000427
C     4.05999994  30.96999931  54.55999756
H     3.54181266  31.71533775  53.95663071
H     8.56999969  31.56999969  52.12999725
H     9.72000027  33.06000137  56.63000107
H     7.09999990  33.08000183  57.29999924
H     4.90999985  32.65000153  56.55000305
H     6.30999994  30.73999786  52.98999786
H    14.37999916  31.94000053  52.67000198
H     3.51000023  30.88000107  55.51000214
H     3.98999977  29.93999863  54.19000244
S    15.62999916  34.03000259  51.29000092
C    18.26000023  34.27999878  50.61000061
C    17.02000046  33.82999802  50.20999908
C    16.68000031  33.40999985  48.88000107
C    17.65999985  33.52999878  47.90999985
C    18.98999977  33.88999939  48.25000000
C    20.06000137  33.84999847  47.31999969
C    21.35000038  34.25000000  47.60000229
C    21.61999893  34.72999954  48.89999771
C    20.55000114  34.88999939  49.75999832
C    19.23999977  34.36000061  49.59000015
C    15.22999954  33.29999924  48.75000000
C    14.53999996  33.62999725  49.93999863
C    13.15999985  33.81999969  49.93999863
C    23.02000046  35.15000153  49.26000214
H    23.40538979  34.41490555  49.96654892
H    18.53000069  34.66999817  51.58000183
H    17.48999977  33.09999847  46.93000031
H    19.81999969  33.40999985  46.35000229
H    22.09000015  34.25000000  46.81000137
H    20.78000069  35.16999817  50.79000092
H    12.64000034  33.98999786  50.86999893
H    23.64000130  35.13999939  48.34999847
H    23.09999847  36.13999939  49.72000122
S    12.00000000  32.52999878  46.38000107
C     9.35999966  32.36000061  47.18000031
C    10.62999916  32.80999756  47.47000122
C    10.98000050  33.39999771  48.72000122
C     9.94999981  33.52999878  49.64000320
C     8.60999966  33.20000076  49.34999847
C     7.57000017  33.29000092  50.31999969
C     6.28000021  32.86000061  50.08999634
C     5.95000029  32.43000031  48.77999878
C     6.97000027  32.09000015  47.91999817
C     8.30000019  32.54000092  48.09999847
C    12.42000008  33.56999969  48.76999664
C    13.12000084  33.09999847  47.63000107
C    14.51000023  33.02000046  47.58999634
C     4.53999996  31.98999786  48.44999695
H     4.08497429  32.61565781  47.68214417
H     9.02999973  31.83000183  46.29000092
H    10.17000008  33.70999908  50.68999863
H     7.77999973  33.65999985  51.31999969
H     5.51000023  32.90000153  50.84999847
H     6.80000019  31.56999969  46.97999954
H    14.98000050  32.63999939  46.69000244
H     3.97000027  32.06999969  49.38000107
H     4.51000023  30.95000076  48.09999847
