96

S    15.38000011  33.68999863  56.88000107
C    18.09000015  33.84000015  56.19999695
C    16.81999969  33.41999817  55.87999725
C    16.50000000  32.86999893  54.59999847
C    17.53000069  32.63999939  53.70999908
C    18.86999893  33.01000214  54.01000214
C    19.95000076  32.72000122  53.13000107
C    21.22999954  33.04000092  53.50999832
C    21.54999924  33.59000015  54.78000259
C    20.52000046  33.74000168  55.68000031
C    19.15999985  33.51000214  55.33000183
C    15.06000042  32.83000183  54.38000107
C    14.32999992  33.20000076  55.54000092
C    12.94999981  33.27999878  55.65999985
C    22.98999977  33.94000244  55.10000229
H    23.40260506  33.32109451  55.89675140
H    18.36000061  34.38000107  57.11000061
H    17.31999969  32.30999756  52.70000076
H    19.84000015  32.30999756  52.12999725
H    22.01000023  33.00000000  52.75000000
H    20.65999985  34.27999878  56.60999680
H    12.43000031  33.68000031  56.52000046
H    23.59999847  33.88999939  54.19000244
H    22.96999931  34.97000122  55.47999954
S    11.72000027  31.98999786  52.15000153
C     9.02999973  32.20999908  52.81999969
C    10.34000015  32.37999725  53.20000076
C    10.73999977  32.85000229  54.48999786
C     9.77000046  33.04999924  55.45999908
C     8.43000031  32.75000000  55.13999939
C     7.42000008  33.13000107  56.05999756
C     6.07999992  32.95000076  55.79000092
C     5.69000006  32.47999954  54.51000214
C     6.63000011  32.27999878  53.53000259
C     8.02999973  32.36999893  53.81000137
C    12.18999958  32.85000229  54.55999756
C    12.89999962  32.40999985  53.40999985
C    14.27999973  32.40000153  53.29999924
C     4.26999998  32.06999969  54.20999908
H     3.88070583  32.33188629  53.22614670
H     8.71999931  32.11999893  51.77999878
H    10.00000000  33.65000153  56.33999634
H     7.81000042  33.50000000  57.00000000
H     5.28999996  32.95000076  56.53999710
H     6.34999990  31.90000153  52.55000305
H    14.80000019  32.07999802  52.39999771
H     3.61000013  32.38999939  55.02999878
H     4.19999981  30.97999954  54.25000000
S    12.15999985  30.12000084  49.31999969
C     9.50000000  29.48999786  49.93000031
C    10.84000015  29.34000015  50.20000076
C    11.26999950  28.59000015  51.33999634
C    10.31999969  28.13999939  52.25000000
C     8.93999958  28.38000107  52.05999756
C     7.95000029  27.86000061  52.94000244
C     6.61000013  28.03999901  52.67000198
C     6.21000004  28.71999931  51.50000000
C     7.13999987  29.26000214  50.63999939
C     8.52000046  28.97000122  50.81999969
C    12.69000053  28.82999802  51.55000305
C    13.30999947  29.70000076  50.61000061
C    14.60999966  30.15999985  50.68999863
C     4.74000025  29.00000000  51.24000168
H     4.27665138  28.40121078  50.45587158
H     9.13999939  30.20999908  49.20000076
H    10.62999916  27.40999985  53.00000000
H     8.31999969  27.32000160  53.81000137
H     5.91000032  27.60999870  53.37999725
H     6.84999990  29.96000099  49.86000061
H    15.06000042  30.72000122  49.86999893
H     4.15999985  28.85000038  52.15999985
H     4.78999996  30.06000137  50.97000122
S    15.93000031  28.35000038  54.01000214
C    18.61999893  28.97999954  53.44999695
C    17.28999901  29.09000015  53.13000107
C    16.84999847  29.69000053  51.90999985
C    17.84000015  30.09000015  51.03000259
C    19.22000122  29.93000031  51.27999878
C    20.20000076  30.40999985  50.35999680
C    21.54000092  30.27000046  50.63000107
C    21.94000053  29.61000061  51.81999969
C    21.02000046  29.23999977  52.77000046
C    19.62000084  29.28999901  52.50000000
C    15.39999962  29.70000076  51.75000000
C    14.78999996  28.97000122  52.80000305
C    13.45999908  28.59000015  52.69000244
C    23.39999962  29.51000023  52.18999863
H    23.66189384  30.30275917  52.89074326
H    18.81999969  28.71999931  54.48999786
H    17.59000015  30.46999931  50.05000305
H    19.81999969  30.93000031  49.47999954
H    22.23999977  30.81999969  50.00999832
H    21.38000107  28.92999840  53.75000000
H    12.98999977  28.00000000  53.47000122
H    24.00000000  29.65999985  51.29000092
H    23.61000061  28.54000092  52.65999603
