96

S    15.97000027  34.01000214  57.16999817
C    18.56999969  34.40999985  56.29000092
C    17.32999992  33.87000275  56.04000092
C    16.90000153  33.50000000  54.72999954
C    17.88999939  33.34000015  53.77999878
C    19.23999977  33.65999985  54.06999969
C    20.22999954  33.54999924  53.04999924
C    21.47000122  34.10000229  53.26000214
C    21.83000183  34.76000214  54.47000122
C    20.88999939  34.86000061  55.47000122
C    19.60000038  34.29000092  55.31999969
C    15.44999981  33.48999786  54.58000183
C    14.84000015  33.72999954  55.84000015
C    13.45000076  33.77000046  55.93999863
C    23.21000099  35.18000031  54.87999725
H    23.65150833  34.54621887  55.64908218
H    18.81000137  34.79999924  57.28000259
H    17.64000130  33.00000000  52.77999878
H    20.05000114  33.13999939  52.05999756
H    22.15999985  33.91999817  52.43999863
H    21.05999947  35.40999985  56.39999771
H    12.96000004  33.95000076  56.88999939
H    23.78999901  35.13000107  53.95000076
H    23.15999985  36.22000122  55.25000000
S    12.30000019  32.77000046  52.18000031
C     9.64999962  32.38999939  52.90999985
C    10.90000057  32.84000015  53.27000046
C    11.23999977  33.31000137  54.58000183
C    10.13000011  33.32999802  55.40999985
C     8.85000038  32.79999924  55.13000107
C     7.76999998  32.75000000  56.04999924
C     6.47000027  32.43999863  55.72000122
C     6.26999950  31.80000114  54.47000122
C     7.27999973  31.73999977  53.54000092
C     8.57999992  32.23999786  53.82999802
C    12.65999985  33.48999786  54.81999969
C    13.30000019  33.15999985  53.59000397
C    14.68000031  33.06000137  53.48999786
C     4.86000013  31.38999939  54.10999680
H     4.31958723  32.09395599  53.47714615
H     9.48000050  31.87000084  51.97000122
H    10.36000061  33.41999817  56.46999741
H     8.00000000  33.27000046  56.97999954
H     5.63000011  32.57999802  56.38000107
H     7.20000029  31.47000122  52.49000168
H    15.14000034  32.54000092  52.64999771
H     4.32999992  31.31000137  55.06999969
H     4.88999987  30.35000038  53.74000168
S    16.35000038  34.68000031  50.98999786
C    19.02000046  34.84999847  50.12000275
C    17.71000099  34.48999786  49.86999893
C    17.34000015  33.95000076  48.60000229
C    18.32999992  33.70999908  47.65999603
C    19.69000053  34.00000000  47.93000031
C    20.76999855  33.77999878  47.02999878
C    22.06000137  34.17000198  47.29999924
C    22.34000015  34.87999725  48.50000000
C    21.37000084  35.06000137  49.45999908
C    20.05000114  34.61000061  49.18000031
C    15.90999985  33.72999954  48.50999832
C    15.26000023  34.10000229  49.71000290
C    13.86999989  34.18999863  49.75999832
C    23.75000000  35.26000214  48.88000107
H    24.07028198  34.53403091  49.62732315
H    19.17000008  35.45999908  51.00000000
H    18.04000092  33.45000076  46.63999939
H    20.52999878  33.22000122  46.11999893
H    22.81999969  33.82999802  46.60999680
H    21.61000061  35.38999939  50.47000122
H    13.36999989  34.56999969  50.63999939
H    24.38999939  35.40000153  48.00000000
H    23.57999992  36.25999832  49.29999924
S    12.63000011  33.04000092  46.18000031
C     9.94999981  32.97999954  46.97000122
C    11.23999977  33.36999893  47.23999786
C    11.61999893  33.72999954  48.56999969
C    10.62999916  33.95999908  49.51000214
C     9.26999950  33.62999725  49.26000214
C     8.32999992  33.56999969  50.31999969
C     7.05999947  33.15000153  49.99000168
C     6.67000008  32.79000092  48.67000198
C     7.59999990  32.79000092  47.65999603
C     8.93999958  33.13000107  47.95000076
C    13.07000065  33.75000000  48.69999695
C    13.73000050  33.25000000  47.56000137
C    15.11999989  33.18999863  47.48000336
C     5.22000027  32.43000031  48.46000290
H     4.80031872  33.14132309  47.74867630
H     9.70000076  32.55000305  46.00000000
H    10.85999966  34.15999985  50.54999924
H     8.57999992  34.02000046  51.27999878
H     6.32000017  33.22999954  50.77999878
H     7.31999969  32.50000000  46.65000153
H    15.60999966  32.80999756  46.59000015
H     4.59999990  32.59999847  49.34999847
H     5.12000036  31.40999985  48.06999969
