96

S    15.29000092  34.02000046  56.95999908
C    17.89999962  34.01000214  56.13999939
C    16.61999893  33.58000183  55.87999725
C    16.25000000  32.95999908  54.65000153
C    17.26000023  32.61000061  53.75999832
C    18.59000015  33.01000214  54.01000214
C    19.56999969  32.83000183  52.98999786
C    20.85000038  33.27999878  53.20999908
C    21.14000130  34.04000092  54.36999893
C    20.23999977  34.26000214  55.38999939
C    18.93000031  33.72999954  55.20999908
C    14.80000019  32.99000168  54.54999924
C    14.15999985  33.59999847  55.65999985
C    12.77999973  33.72000122  55.65999985
C    22.55000114  34.52999878  54.61999893
H    23.04081345  33.93248367  55.38823318
H    18.04000092  34.56000137  57.06999969
H    16.95999908  32.04000092  52.88999939
H    19.18000031  32.52000046  52.02999878
H    21.55999947  33.09999847  52.39999771
H    20.52000046  34.77999878  56.31000137
H    12.23999977  34.15999985  56.50000000
H    23.09999847  34.57999802  53.67000198
H    22.49000168  35.58000183  54.91000366
S    11.61000061  32.33000183  52.11999893
C     8.94999981  32.11000061  52.78999710
C    10.19999981  32.52999878  53.18000031
C    10.57000065  33.11000061  54.43000031
C     9.53999996  33.34000015  55.31999969
C     8.19000053  33.01000214  55.02999878
C     7.16000032  33.29000092  55.97000122
C     5.86999989  32.93000031  55.63999939
C     5.55999994  32.36000061  54.36999893
C     6.57999992  32.13999939  53.47000122
C     7.94000053  32.43999863  53.73000336
C    12.01000023  33.29999924  54.55999756
C    12.69999981  32.76000214  53.44999695
C    14.09000015  32.66999817  53.39000320
C     4.26999998  31.65999985  54.02999878
H     3.68221045  32.19821930  53.28641129
H     8.78999996  31.47000122  51.93000031
H     9.75000000  33.77000046  56.29000092
H     7.44999981  33.47999954  56.98999786
H     5.15999985  32.86999893  56.45000076
H     6.38999987  31.40999985  52.68000031
H    14.63999939  32.21999741  52.56999969
H     3.70000005  31.61999893  54.97000122
H     4.46999979  30.62999916  53.70999908
S    12.28000069  30.20000076  49.29999924
C     9.61999989  29.38999939  49.81999969
C    10.93999958  29.44000053  50.19000244
C    11.32999992  28.92999840  51.46999741
C    10.43000031  28.35000038  52.34000397
C     9.04999924  28.51000023  52.05999756
C     8.00000000  28.09000015  52.91999817
C     6.65000010  28.18000031  52.65999603
C     6.28999996  28.78000069  51.43000031
C     7.25000000  29.20000076  50.52999878
C     8.64000034  29.03000069  50.77999878
C    12.76999950  29.02000046  51.66999817
C    13.38999939  29.70000076  50.59000015
C    14.73000050  30.09000015  50.70000076
C     4.81999969  29.03000069  51.19999695
H     4.43624258  28.56807137  50.29035187
H     9.48000050  29.70000076  48.77999878
H    10.85999966  27.82999992  53.18999863
H     8.23000050  27.56999969  53.83999634
H     5.88999987  27.89999962  53.39000320
H     7.09000015  29.71999931  49.59000015
H    15.15999985  30.71000099  49.93000031
H     4.30999994  28.69999886  52.11000061
H     4.73000002  30.12000084  51.14999771
S    15.98000050  28.64000130  54.18000031
C    18.71999931  29.01000023  53.50999832
C    17.38000107  29.14999962  53.22000122
C    16.98999977  29.68000031  51.95000076
C    17.94000053  30.20999908  51.09000397
C    19.30999947  30.13999939  51.40999603
C    20.29000092  30.62999916  50.48999786
C    21.61000061  30.34000015  50.72000122
C    22.01000023  29.75000000  51.93999863
C    21.11999893  29.47999954  52.95000076
C    19.72999954  29.54999924  52.65999603
C    15.54999924  29.63999939  51.73999786
C    14.88999939  29.00000000  52.81999969
C    13.55999947  28.59999847  52.75000000
C    23.45000076  29.34000015  52.19999695
H    23.86887932  29.88667107  53.04485703
H    18.96999931  28.52999878  54.45000076
H    17.61999893  30.62000084  50.13999939
H    19.92000008  31.19999886  49.64000320
H    22.39999962  30.58000183  50.00999832
H    21.28999901  28.98999977  53.89999771
H    13.10999966  27.92000008  53.46000290
H    24.00000000  29.64999962  51.31000137
H    23.57000160  28.28000069  52.44999695
