96

S    15.01999950  33.52999878  57.48000336
C    17.76000023  33.82999802  56.75000000
C    16.48999977  33.34999847  56.51000214
C    16.20000076  32.90999985  55.18000031
C    17.20999908  32.86999893  54.22999954
C    18.52000046  33.34000015  54.47999954
C    19.55000114  33.23999786  53.50000000
C    20.82999992  33.68000031  53.75000000
C    21.02999878  34.24000168  55.04000092
C    20.10000038  34.36999893  56.04000092
C    18.81999969  33.81000137  55.79999924
C    14.75999928  32.70999908  55.00999832
C    13.96000004  33.04000092  56.13999939
C    12.58999920  33.22000122  56.04999924
C    22.47999954  34.61000061  55.28999710
H    22.97874451  33.96875763  56.01674271
H    17.95999908  34.31999969  57.69000244
H    16.97999954  32.56999969  53.20999908
H    19.38999939  32.70999908  52.56000137
H    21.57999992  33.52000046  52.97999954
H    20.40999985  34.79000092  57.00000000
H    11.90000057  33.40999985  56.86999893
H    23.02999878  34.69000244  54.34000015
H    22.44999886  35.63999939  55.65999985
S    11.75000000  32.13000107  52.35000229
C     8.97000027  32.11999893  52.83000183
C    10.25000000  32.43999863  53.22999954
C    10.52000046  32.72999954  54.61000061
C     9.52000046  32.61000061  55.54999924
C     8.19999981  32.36000061  55.10000229
C     7.09000015  32.37999725  56.00000000
C     5.82000017  32.09999847  55.58000183
C     5.51999998  31.76000214  54.22999954
C     6.54999971  31.77000046  53.31999969
C     7.88999987  32.04999924  53.73000336
C    11.94000053  33.01000214  54.82999802
C    12.75000000  32.63999939  53.73000336
C    14.13000011  32.50999832  53.77999878
C     4.07999992  31.47999954  53.85000229
H     3.68165755  32.07040024  53.02486420
H     8.78000069  31.71999931  51.84000015
H     9.72999954  32.95999908  56.56000137
H     7.31999969  32.65999985  57.02999878
H     4.94999981  32.11000061  56.24000168
H     6.48000002  31.53000069  52.27000427
H    14.65999985  32.30999756  52.84999847
H     3.48000002  31.80999947  54.71000290
H     3.86000013  30.45000076  53.54999924
S    15.53999996  34.40000153  51.10000229
C    18.26000023  34.52000046  50.52999878
C    17.01000023  34.08000183  50.14999771
C    16.76000023  33.61000061  48.82999802
C    17.80999947  33.58000183  47.94000244
C    19.13999939  33.93000031  48.30999756
C    20.32999992  33.70999908  47.56000137
C    21.61000061  33.94000244  48.02000046
C    21.73999977  34.63999939  49.25000000
C    20.65999985  34.79999924  50.07999802
C    19.36000061  34.38999939  49.65000153
C    15.31999969  33.45999908  48.61999893
C    14.53999996  33.95000076  49.69999695
C    13.15000057  34.01000214  49.72000122
C    23.09000015  35.16999817  49.69999695
H    23.60404205  34.41321945  50.29257202
H    18.42000008  35.15000153  51.39999771
H    17.68000031  33.13999939  46.95000076
H    20.17999840  33.41999817  46.52999878
H    22.50000000  33.81999969  47.42000198
H    20.79999924  35.25000000  51.05999756
H    12.58999920  34.27999878  50.61000061
H    23.68000031  35.42000198  48.81000137
H    22.93999863  36.13999939  50.19000244
S    12.11999989  32.63999939  46.23000336
C     9.39000034  32.44999695  46.84999847
C    10.67999935  32.70000076  47.25999832
C    10.95999908  33.29999924  48.53000259
C     9.92999935  33.52000046  49.41999817
C     8.59000015  33.22000122  49.06999969
C     7.50999975  33.29000092  50.00000000
C     6.21999979  33.02000046  49.62999725
C     5.92000008  32.56000137  48.31999969
C     6.97000027  32.43000031  47.43000031
C     8.32999992  32.65999985  47.77000046
C    12.38999939  33.54000092  48.64999771
C    13.20000076  33.18999863  47.54000092
C    14.57999992  33.09999847  47.49000168
C     4.53000021  32.11000061  47.93000031
H     4.08927822  32.72843170  47.14807510
H     9.28999996  32.14999771  45.80999756
H    10.11000061  33.75000000  50.47000122
H     7.69999981  33.59999847  51.03000259
H     5.36000013  33.27999878  50.24000168
H     6.72999954  31.94999886  46.49000168
H    15.10000038  32.72000122  46.60999680
H     3.94000006  32.25000000  48.83999634
H     4.61999989  31.05999947  47.63999939
