96

S    15.31000042  33.79000092  57.08000183
C    18.04000092  33.72999954  56.32999802
C    16.72999954  33.38999939  56.10000229
C    16.36000061  32.79000092  54.86000061
C    17.35000038  32.63999939  53.89999771
C    18.67000008  33.11000061  54.05000305
C    19.73999977  32.79000092  53.15999985
C    21.02000046  33.20000076  53.41999817
C    21.38999939  33.75000000  54.68000031
C    20.38999939  34.05999756  55.56999969
C    19.04000092  33.68999863  55.31999969
C    14.92000008  32.70999908  54.68000031
C    14.22000027  33.22999954  55.79999924
C    12.82999992  33.29999924  55.81999969
C    22.84000015  33.90000153  55.06999969
H    23.21721840  33.20961761  55.82443619
H    18.30000114  34.04000092  57.34000397
H    17.05000114  32.11000061  53.00000000
H    19.37999916  32.29999924  52.25000000
H    21.78999901  33.08000183  52.67000198
H    20.62999916  34.40999985  56.56999969
H    12.22000027  33.70999908  56.62000275
H    23.42000008  33.87000275  54.13999939
H    22.95999908  34.93999863  55.41999817
S    11.75000000  31.80999947  52.23999786
C     9.04999924  31.97000122  52.77000046
C    10.32999992  32.22999954  53.20999908
C    10.70000076  32.66999817  54.52000046
C     9.68999958  32.93999863  55.41999817
C     8.36000061  32.59999847  55.06000137
C     7.27999973  32.76000214  55.97000122
C     5.98000002  32.38999939  55.70999908
C     5.75999975  31.83000183  54.41999817
C     6.72999954  31.59000015  53.47999954
C     8.03999996  32.06999969  53.75999832
C    12.13999939  32.72000122  54.75000000
C    12.81000042  32.34000015  53.55999756
C    14.19999981  32.27000046  53.55999756
C     4.35999966  31.30000114  54.20000076
H     3.87562728  31.68464851  53.30248642
H     8.85000038  31.47000122  51.81999969
H     9.85999966  33.09000015  56.47999573
H     7.53999996  33.22000122  56.91999817
H     5.28999996  32.40000153  56.55000305
H     6.44000006  31.01000023  52.61000061
H    14.78999996  31.94999886  52.70999908
H     3.68999982  31.44000053  55.05000305
H     4.51000023  30.20999908  54.09000015
S    15.90000057  34.05999756  51.27999878
C    18.59000015  34.38999939  50.54000092
C    17.31999969  33.95000076  50.22999573
C    16.93000031  33.45999908  48.94000244
C    17.93000031  33.38000107  47.98999786
C    19.23999977  33.87000275  48.25000000
C    20.26000023  33.88000107  47.25000000
C    21.54999924  34.17000198  47.63000107
C    21.97999954  34.43999863  48.95999908
C    20.96999931  34.64999771  49.86000061
C    19.61000061  34.31999969  49.55999756
C    15.48999977  33.25000000  48.81000137
C    14.78000069  33.63999939  49.97000122
C    13.40000057  33.81999969  49.95999908
C    23.44000053  34.65999985  49.26000214
H    23.81638718  33.99954605  50.04117966
H    18.86999893  34.80999756  51.50000000
H    17.78000069  32.86999893  47.04000092
H    20.03000069  33.48999786  46.26999664
H    22.25000000  34.06999969  46.81000137
H    21.12999916  34.97999954  50.87999725
H    12.81000042  34.13000107  50.81999969
H    23.90999985  34.50999832  48.27999878
H    23.64000130  35.68999863  49.58000183
S    12.34000015  32.57999802  46.31999969
C     9.68999958  32.18000031  47.04000092
C    10.90999985  32.70999908  47.36999893
C    11.21000099  33.18999863  48.68999863
C    10.18000031  33.34999847  49.59999847
C     8.84000015  33.09000015  49.20999908
C     7.69999981  33.36999893  50.01999664
C     6.44000006  32.93999863  49.66999817
C     6.21999979  32.25000000  48.44999695
C     7.28999996  32.11999893  47.58999634
C     8.61999989  32.50000000  47.91999817
C    12.64000034  33.36000061  48.88000107
C    13.35999966  33.02999878  47.70000076
C    14.75000000  32.95999908  47.65999603
C     4.81999969  31.86000061  48.04000092
H     4.35614443  32.65925980  47.46196365
H     9.51000023  31.60000038  46.13999939
H    10.31000042  33.68000031  50.63000107
H     7.79999971  33.88000107  50.97000122
H     5.59999990  33.15999985  50.31999969
H     7.11000013  31.55999947  46.68000031
H    15.25000000  32.69000244  46.73999786
H     4.32000017  31.61000061  48.99000168
H     4.80999994  30.89999962  47.50999832
