96

S    14.96999931  33.77999878  57.14000320
C    17.67000008  34.18000031  56.42000198
C    16.42000008  33.69999695  56.11999893
C    16.07999992  33.25000000  54.79999924
C    17.12000084  33.15999985  53.88999939
C    18.44000053  33.58000183  54.18000031
C    19.61000061  33.34000015  53.40000153
C    20.85000038  33.82999802  53.72000122
C    21.11999893  34.48999786  54.94999695
C    20.03999901  34.56999969  55.79000092
C    18.71000099  34.18999863  55.45999908
C    14.63000107  33.20999908  54.65000153
C    13.86000061  33.34000015  55.83000183
C    12.48000050  33.40999985  55.87999725
C    22.50000000  34.93000031  55.38000107
H    23.02688599  34.17527008  55.96384811
H    17.76000023  34.65999985  57.39999771
H    16.93000031  32.63000107  52.95999908
H    19.54000092  32.72999954  52.50000000
H    21.70000076  33.52999878  53.11000061
H    20.23999977  34.84999847  56.81999969
H    12.00000000  33.84000015  56.76000214
H    23.23999786  35.18000031  54.59999847
H    22.37999916  35.77999878  56.06999969
S    11.47999954  32.30999756  52.22000122
C     8.73000050  32.06999969  52.94000244
C    10.01999950  32.45999908  53.22000122
C    10.31999969  32.95000076  54.52999878
C     9.32999992  33.06999969  55.48999786
C     8.00000000  32.66999817  55.22999573
C     6.94000006  32.56999969  56.18000031
C     5.69999981  32.07999802  55.84000015
C     5.40000010  31.73000145  54.50000000
C     6.38999987  31.77999878  53.54999924
C     7.69000006  32.23999786  53.88999939
C    11.76000023  33.08000183  54.72999954
C    12.53000069  32.83000183  53.55999756
C    13.90999985  32.88999939  53.48999786
C     4.01999998  31.30000114  54.02999878
H     3.53721285  31.93188477  53.28451920
H     8.47999954  31.42999840  52.09999847
H     9.47000027  33.27000046  56.55000305
H     7.07999992  33.15999985  57.08000183
H     4.88999987  32.13999939  56.56000137
H     6.19999981  31.37000084  52.56000137
H    14.44000053  32.70000076  52.56000137
H     3.50000000  31.31999969  55.00000000
H     4.07999992  30.23999977  53.76999664
S    15.90000057  34.29999924  51.09000397
C    18.52000046  34.61000061  50.38000107
C    17.28000069  34.17000198  49.98000336
C    16.90000153  33.80000305  48.64999771
C    17.94000053  33.69999695  47.75000000
C    19.27000046  34.04999924  48.08000183
C    20.36999893  33.94000244  47.18000031
C    21.63000107  34.40000153  47.49000168
C    21.87000084  34.93000031  48.77999878
C    20.85000038  35.02000046  49.69999695
C    19.52999878  34.61000061  49.38000107
C    15.44999981  33.68999863  48.54999924
C    14.77000046  33.98999786  49.75999832
C    13.38999939  33.97999954  49.94999695
C    23.26999855  35.28000259  49.22000122
H    23.65504265  34.59547806  49.97582626
H    18.71000099  35.02000046  51.37000275
H    17.69000053  33.34000015  46.75000000
H    20.20000076  33.59000015  46.17000198
H    22.43999863  34.34999847  46.77000046
H    20.92000008  35.33000183  50.75000000
H    12.93000031  34.18000031  50.91999817
H    23.95000076  35.22000122  48.36000061
H    23.36000061  36.32999802  49.54000092
S    12.22000027  32.95999908  46.29000092
C     9.51000023  32.97999954  46.91999817
C    10.80000019  33.25000000  47.31999969
C    11.16000080  33.63999939  48.64999771
C    10.14000034  33.63999939  49.59000015
C     8.80000019  33.39999771  49.22000122
C     7.73000002  33.51000214  50.15999603
C     6.44999981  33.13000107  49.79999924
C     6.17000008  32.72999954  48.47000122
C     7.13999987  32.69000244  47.49000168
C     8.46000004  33.08000183  47.85999680
C    12.60000038  33.69999695  48.82999802
C    13.28999996  33.43000031  47.62000275
C    14.67000008  33.32999802  47.43999863
C     4.73000002  32.34000015  48.22999954
H     4.31112003  32.88667297  47.38513947
H     9.35999966  32.63999939  45.90000153
H    10.36999893  33.88999939  50.63000107
H     7.88000011  33.90000153  51.16000366
H     5.61999989  33.20000076  50.48999786
H     6.84000015  32.37999725  46.49000168
H    15.07999992  33.06999969  46.46999741
H     4.05000019  32.50999832  49.06999969
H     4.74000025  31.30000114  47.88000107
