96

S    15.24000072  33.95000076  57.28000259
C    17.97000122  34.01000214  56.63999939
C    16.68000031  33.67000198  56.29000092
C    16.36000061  33.13000107  55.00999832
C    17.30999947  33.13999939  54.00000000
C    18.63000107  33.51000214  54.34999847
C    19.76000023  33.32999802  53.50000000
C    21.04999924  33.52999878  53.89999771
C    21.38999939  34.13000107  55.13999939
C    20.35000038  34.18999863  56.04000092
C    19.01000023  33.91999817  55.66999817
C    14.92000008  32.97999954  54.79999924
C    14.19999981  33.43000031  55.93999863
C    12.81999969  33.56999969  56.00000000
C    22.82999992  34.36000061  55.56999969
H    23.22987747  33.74590302  56.37689590
H    18.15000153  34.27000046  57.68000031
H    17.07999992  32.88999939  52.97000122
H    19.72999954  32.80999756  52.54000092
H    21.83000183  33.13000107  53.26000214
H    20.61000061  34.43000031  57.06999969
H    12.43000031  33.84999847  56.97000122
H    23.51000023  34.27999878  54.71000290
H    22.96999931  35.42000198  55.84000015
S    11.69000053  32.22999954  52.44999695
C     9.02000046  32.21999741  53.15999985
C    10.29000092  32.65999985  53.43999863
C    10.62999916  33.25000000  54.71000290
C     9.63000011  33.50000000  55.63000107
C     8.30000019  33.11999893  55.31999969
C     7.30000019  33.38000107  56.30000305
C     6.02999973  32.90999985  56.09000397
C     5.69999981  32.18000031  54.92000198
C     6.63999987  31.98999786  53.93000031
C     7.99000025  32.40000153  54.10999680
C    12.07999992  33.22999954  54.86000061
C    12.79000092  32.81999969  53.70999908
C    14.15999985  32.56000137  53.70999908
C     4.28999996  31.73000145  54.61999893
H     3.86986136  32.31392288  53.80108643
H     8.78000069  31.68000031  52.23999786
H     9.75000000  33.79000092  56.65999985
H     7.63000011  33.70999908  57.29000092
H     5.28999996  32.95000076  56.88000107
H     6.42000008  31.42000008  53.02999878
H    14.65999985  32.06999969  52.88000107
H     3.61999989  31.88999939  55.47999954
H     4.32999992  30.71000099  54.22000122
S    12.20999908  30.31999969  49.52000046
C     9.56999969  29.51000023  50.02999878
C    10.88999939  29.53000069  50.41999817
C    11.33999920  28.88999939  51.62000275
C    10.39000034  28.26999855  52.41000366
C     9.01000023  28.40999985  52.18000031
C     8.01000023  27.93999863  53.08000183
C     6.69000053  28.03999901  52.75000000
C     6.24000025  28.71000099  51.58000183
C     7.20000029  29.20999908  50.73999786
C     8.60000038  29.04999924  50.94999695
C    12.74000072  29.15999985  51.90999985
C    13.31999969  29.89000130  50.84000015
C    14.65999985  30.23999977  50.90999985
C     4.76000023  29.02000046  51.45999908
H     4.23397732  28.51530457  50.64963913
H     9.34000015  29.82999992  49.01000214
H    10.80000019  27.72999954  53.26000214
H     8.27999973  27.43999863  54.01000214
H     5.92000008  27.73999977  53.46000290
H     7.00000000  29.79000092  49.84000397
H    15.11000061  30.76000023  50.06999969
H     4.19999981  28.78000069  52.37999725
H     4.73000002  30.10999870  51.39999771
S    16.06999969  28.68999863  54.26000214
C    18.68999863  29.46000099  53.67000198
C    17.35999870  29.48999786  53.34000015
C    16.87999916  30.06000137  52.11999893
C    17.75000000  30.63999939  51.20999908
C    19.11999893  30.55000114  51.55000305
C    20.07999802  30.88000107  50.54999924
C    21.42999840  30.79999924  50.83000183
C    21.97000122  30.38000107  52.08000183
C    21.04999924  29.93999863  53.00000000
C    19.63999939  30.02000046  52.77999878
C    15.44000053  29.86999893  52.02000046
C    14.82999992  29.14999962  53.08000183
C    13.52000046  28.71999931  52.98999786
C    23.45000076  30.10000038  52.22000122
H    23.72722816  30.28481865  53.25782776
H    18.97999954  28.80000114  54.47999954
H    17.35999870  30.93000031  50.24000168
H    19.78999901  31.09999847  49.52999878
H    22.13999939  30.96999931  50.02999878
H    21.37000084  29.46000099  53.92000198
H    13.15999985  27.98000145  53.70999908
H    24.07999992  30.59999847  51.47999573
H    23.61999893  29.02000046  52.09000015
