96

S    15.22999954  33.84000015  57.32999802
C    17.94000053  33.88999939  56.75000000
C    16.67000008  33.54000092  56.35000229
C    16.38000107  33.00000000  55.06000137
C    17.43999863  32.88999939  54.18000031
C    18.71000099  33.43000031  54.48999786
C    19.81999969  33.31000137  53.60000229
C    21.07000160  33.79000092  53.93000031
C    21.31999969  34.24000168  55.25000000
C    20.28000069  34.43999863  56.12999725
C    18.97999954  33.98999786  55.77999878
C    14.93999958  32.88999939  54.86999893
C    14.19000053  33.31000137  55.98999786
C    12.79999924  33.41999817  56.00999832
C    22.76000023  34.56000137  55.58000183
H    23.31365585  33.87857819  56.22593307
H    18.09000015  34.34000015  57.72999573
H    17.30999947  32.43999863  53.20000076
H    19.78999901  32.65000153  52.74000168
H    21.90000153  33.52999878  53.27999878
H    20.40999985  34.84999847  57.12999725
H    12.25999928  33.97000122  56.77000046
H    23.22999954  34.52999878  54.59000015
H    22.78000069  35.59000015  55.97000122
S    11.82000065  31.87000084  52.47000122
C     9.13000011  31.94999886  53.00000000
C    10.39000034  32.29000092  53.43000031
C    10.71000004  32.95000076  54.66999817
C     9.63999939  33.29000092  55.47999954
C     8.30999947  33.02999878  55.06000137
C     7.22000027  33.15000153  55.97000122
C     5.93999958  32.77000046  55.66999817
C     5.68000031  32.09999847  54.43999863
C     6.72999954  31.86000061  53.57999802
C     8.05000019  32.33000183  53.82999802
C    12.15000057  32.92000198  54.87999725
C    12.88000011  32.36000061  53.80000305
C    14.27000046  32.36000061  53.75999832
C     4.32000017  31.54000092  54.12000275
H     3.79402256  32.14416504  53.38079071
H     9.00000000  31.44000053  52.04999924
H     9.86999989  33.68999863  56.45999908
H     7.36000013  33.54999924  56.97000122
H     5.15999985  32.84000015  56.42000198
H     6.57000017  31.18000031  52.75000000
H    14.78000069  32.11000061  52.83000183
H     3.76999998  31.50000000  55.06999969
H     4.55000019  30.48999977  53.89999771
S    15.95000076  34.15999985  51.31000137
C    18.68000031  34.27999878  50.65999985
C    17.39999962  33.88000107  50.31999969
C    17.01000023  33.36999893  49.05000305
C    17.94999886  33.34000015  48.04000092
C    19.29999924  33.65000153  48.33000183
C    20.28000069  33.55999756  47.29999924
C    21.60000038  33.72000122  47.67000198
C    21.96000099  34.11000061  48.97999573
C    21.00000000  34.48999786  49.88999939
C    19.67000008  34.05999756  49.65999985
C    15.57999992  33.09999847  48.90999603
C    14.85999966  33.63999939  50.00000000
C    13.48000050  33.75999832  50.10000229
C    23.43000031  34.38000107  49.22999954
H    23.72913170  33.93130112  50.17725372
H    18.81000137  34.77999878  51.60999680
H    17.71999931  33.04999924  47.02000046
H    20.03999901  33.39999771  46.25000000
H    22.34000015  33.68000031  46.86999893
H    21.25999832  35.06000137  50.77999878
H    13.07999992  34.06999969  51.05999756
H    23.98999977  34.04000092  48.36000061
H    23.55999947  35.47000122  49.20999908
S    12.34000015  32.52000046  46.55000305
C     9.61999989  32.68000031  47.15999985
C    10.92000008  32.93000031  47.52999878
C    11.25000000  33.44000244  48.81999969
C    10.19999981  33.63999939  49.71000290
C     8.88000011  33.18999863  49.45999908
C     7.85000038  33.15000153  50.43000031
C     6.56000042  32.78000259  50.11000061
C     6.26999950  32.37999725  48.77999878
C     7.23000002  32.42000198  47.80000305
C     8.59000015  32.72000122  48.13000107
C    12.69000053  33.45000076  48.97999573
C    13.43999958  33.01000214  47.85999680
C    14.78999996  32.68000031  47.83000183
C     4.84000015  32.04999924  48.40999985
H     4.29163790  32.73367310  47.76193619
H     9.39000034  32.23999786  46.18999863
H    10.31999969  34.05999756  50.70000076
H     8.10999966  33.51000214  51.43000031
H     5.71000004  32.86000061  50.77999878
H     6.98999977  32.29999924  46.75000000
H    15.18000031  32.29999924  46.90000153
H     4.32000017  31.93000031  49.38000107
H     4.92000008  31.04999924  47.97000122
