96

S    15.31999969  33.59999847  57.04000092
C    18.01000023  33.84000015  56.38000107
C    16.73999977  33.50000000  55.97999954
C    16.47999954  33.00000000  54.66999817
C    17.56000137  32.85000229  53.81000137
C    18.85000038  33.31000137  54.15000153
C    19.93000031  33.16999817  53.22000122
C    21.21999931  33.50000000  53.54000092
C    21.47000122  33.90999985  54.86999893
C    20.45999908  34.09000015  55.79999924
C    19.11000061  33.75999832  55.48999786
C    15.03999901  32.88999939  54.45999908
C    14.30999947  33.22999954  55.63000107
C    12.93000031  33.36999893  55.65999985
C    22.86000061  34.40999985  55.20999908
H    23.27365494  33.80378342  56.01590729
H    18.22000122  34.22000122  57.37999725
H    17.43999863  32.37999725  52.84000015
H    19.73999977  32.70000076  52.25999832
H    22.01999855  33.38999939  52.81000137
H    20.66999817  34.54999924  56.76000214
H    12.44999981  33.55999756  56.60999680
H    23.51000023  34.31000137  54.33000183
H    22.76000023  35.47999954  55.44000244
S    11.87999916  32.22999954  52.00000000
C     9.19999981  31.97999954  52.72999573
C    10.44000053  32.47999954  53.02000046
C    10.77999973  32.99000168  54.31999969
C     9.80000019  33.11000061  55.27999878
C     8.46000004  32.72999954  55.00999832
C     7.42999983  32.93000031  55.97000122
C     6.15000010  32.52999878  55.65999985
C     5.84999990  32.02000046  54.36999893
C     6.81999969  31.94000053  53.39000320
C     8.18000031  32.23999786  53.68999863
C    12.22000027  33.13000107  54.47000122
C    12.94999981  32.79999924  53.29999924
C    14.32000065  32.56999969  53.30999756
C     4.40000010  31.78999901  54.02999878
H     4.02979517  32.24563599  53.11160660
H     9.06999969  31.38999939  51.83000183
H    10.11999989  33.44000244  56.26999664
H     7.57999992  33.34000015  56.95999908
H     5.38000011  32.65999985  56.42000198
H     6.61999989  31.64999962  52.36000061
H    14.75999928  32.29000092  52.36000061
H     3.75000000  32.04000092  54.87999725
H     4.35999966  30.69999886  53.90999603
S    12.28000069  30.17999840  49.20999908
C     9.63000011  29.46000099  49.79999924
C    10.95999908  29.43000031  50.13999939
C    11.46000004  28.74000168  51.29000092
C    10.55999947  28.15000153  52.15000153
C     9.17000008  28.26999855  51.88000107
C     8.19999981  27.73999977  52.77999878
C     6.84999990  27.92000008  52.56000137
C     6.32999992  28.50000000  51.38000107
C     7.26999998  29.00000000  50.50000000
C     8.67999935  28.90000153  50.68999863
C    12.88000011  29.00000000  51.52000046
C    13.45999908  29.71999931  50.45000076
C    14.78000069  30.15999985  50.51000214
C     4.82999992  28.68999863  51.22000122
H     4.48995829  28.32870483  50.24946594
H     9.26999950  29.92000198  48.88000107
H    10.97000027  27.60000038  52.98999786
H     8.55000019  27.26000023  53.68999863
H     6.02999973  27.62000084  53.20000076
H     6.94999981  29.71999931  49.75000000
H    15.29999924  30.72999954  49.73999786
H     4.28999996  28.11000061  51.97000122
H     4.51000023  29.72999954  51.35000229
S    16.27000046  28.50000000  53.79000092
C    18.90999985  29.13000107  53.15000153
C    17.59000015  29.13999939  52.78999710
C    17.11000061  29.76000023  51.59000015
C    18.04000092  30.25000000  50.68999863
C    19.38999939  30.34000015  51.11000061
C    20.36000061  30.72999954  50.13999939
C    21.68999863  30.61000061  50.45000076
C    22.14999962  30.07999802  51.69000244
C    21.25000000  29.77000046  52.69000244
C    19.86999893  29.82999992  52.36999893
C    15.65999985  29.70000076  51.51000214
C    15.06000042  29.01000023  52.58999634
C    13.71000099  28.68999863  52.60000229
C    23.61000061  29.70000076  51.79000092
H    24.03903008  29.99316978  52.74816895
H    19.27000046  28.54999924  54.00000000
H    17.85000038  30.51000214  49.65999985
H    20.03999901  30.96999931  49.13000107
H    22.42000198  30.53999901  49.65000153
H    21.52000046  29.15999985  53.54000092
H    13.40999985  28.02000046  53.40000153
H    23.98999977  30.26000023  50.91999817
H    23.71000099  28.61999893  51.63000107
