96

S    15.36999893  33.81000137  56.97999954
C    18.04999924  33.82999802  56.31999969
C    16.77000046  33.54000092  55.93000031
C    16.34000015  32.99000168  54.68000031
C    17.35000038  32.75000000  53.75999832
C    18.65999985  33.20000076  54.03999710
C    19.75000000  32.93999863  53.16999817
C    21.04999924  33.31000137  53.40999985
C    21.44000053  33.81999969  54.68000031
C    20.40999985  34.10000229  55.54999924
C    19.04999924  33.75000000  55.31999969
C    14.88999939  32.88999939  54.58000183
C    14.19999981  33.23999786  55.77000046
C    12.81999969  33.34999847  55.90999985
C    22.85000038  34.27999878  54.93000031
H    23.30374336  33.78371811  55.78786087
H    18.32999992  34.08000183  57.34000397
H    17.05000114  32.30999756  52.81999969
H    19.47000122  32.38999939  52.27000427
H    21.80999947  33.34000015  52.63000107
H    20.61000061  34.66999817  56.45999908
H    12.35000038  33.55999756  56.86000061
H    23.35000038  33.97999954  54.00000000
H    22.88000107  35.36999893  54.99000168
S    11.68000031  32.00999832  52.36999893
C     8.97999954  32.00999832  53.00000000
C    10.26999950  32.29000092  53.40000153
C    10.57999992  32.90000153  54.65999985
C     9.47000027  33.15000153  55.44000244
C     8.18000031  32.62000275  55.17000198
C     7.11000013  32.86000061  56.07999802
C     5.82000017  32.57999802  55.70000076
C     5.50000000  32.02999878  54.43999863
C     6.50000000  31.87000084  53.50000000
C     7.85000038  32.16999817  53.85000229
C    12.02999973  32.95000076  54.82999802
C    12.75000000  32.52999878  53.68000031
C    14.11999893  32.40999985  53.50999832
C     4.09999990  31.71999931  53.96999741
H     3.63562584  32.44870758  53.30558777
H     8.78999996  31.68000031  51.98999786
H     9.55999947  33.70999908  56.36000061
H     7.21000004  33.36999893  57.02999878
H     5.01999950  33.02999878  56.29000092
H     6.25000000  31.37000084  52.56999969
H    14.53999996  31.87999916  52.65999603
H     3.49000001  31.52000046  54.86999893
H     4.18000031  30.73999786  53.47999954
S    11.97999954  30.29999924  49.34999847
C     9.36999989  29.67000008  50.13999939
C    10.72000027  29.44999886  50.26000214
C    11.23000050  28.71000099  51.38000107
C    10.29999924  28.23999786  52.29000092
C     8.90999985  28.46999931  52.15999985
C     7.96000004  27.95000076  53.08000183
C     6.61999989  28.23999786  52.95000076
C     6.06999969  28.77000046  51.75000000
C     6.97000027  29.14999962  50.77999878
C     8.38000011  29.15999985  51.02000427
C    12.67000008  28.92000008  51.55000305
C    13.21000004  29.69000053  50.48999786
C    14.53999996  30.07999802  50.51000214
C     4.59999990  28.54999924  51.45999908
H     4.23732471  28.85578537  50.47864151
H     9.06999969  30.25000000  49.27999878
H    10.62999916  27.50000000  53.01000214
H     8.27000046  27.46000099  54.00000000
H     5.98000002  27.81999969  53.72000122
H     6.76000023  29.43000031  49.75000000
H    14.96999931  30.52000046  49.61999893
H     4.26999998  27.52000046  51.63999939
H     4.02999973  29.09000015  52.22000122
S    16.09000015  28.46999931  53.79000092
C    18.71000099  29.05999947  53.02000046
C    17.35999870  29.13999939  52.75000000
C    16.84000015  29.73999977  51.56000137
C    17.76000023  30.32999992  50.70000076
C    19.15999985  30.20000076  50.86999893
C    20.13999939  30.65999985  49.94999695
C    21.40999985  30.95999908  50.38000107
C    21.84999847  30.39999962  51.60999680
C    21.02000046  29.61999893  52.37999725
C    19.63000107  29.54999924  52.05999756
C    15.39000034  29.65999985  51.53999710
C    14.82999992  28.95000076  52.63000107
C    13.47000027  28.64000130  52.65999603
C    23.28000069  30.72999954  51.95000076
H    23.72043228  30.19011688  52.78824234
H    19.02000046  28.67000198  53.97999573
H    17.31999969  30.95999908  49.93000031
H    19.82999992  31.24000168  49.08000183
H    22.03000069  31.42999840  49.61999893
H    21.40999985  29.10000038  53.25000000
H    13.09999943  27.93000031  53.40000153
H    23.25000000  31.77999878  52.29000092
H    23.95000076  30.79999924  51.09000397
