96

S    15.34000015  33.74000168  57.04000092
C    17.97999954  33.91999817  56.32999802
C    16.72999954  33.51000214  55.96000290
C    16.38000107  33.09000015  54.62999725
C    17.38999939  32.97999954  53.68999863
C    18.68999863  33.43000031  54.01000214
C    19.77000046  33.08000183  53.15000153
C    21.05999947  33.41999817  53.47000122
C    21.31999969  34.13999939  54.66999817
C    20.30999947  34.40000153  55.56000137
C    18.98999977  33.93000031  55.33000183
C    14.96000099  32.88999939  54.43999863
C    14.32999992  33.22000122  55.68000031
C    12.94999981  33.32999802  55.75000000
C    22.75000000  34.57999802  54.91000366
H    23.24168587  33.87453842  55.57983398
H    18.11000061  34.36999893  57.31999969
H    17.15999985  32.50000000  52.74000168
H    19.52000046  32.59999847  52.21000290
H    21.84000015  32.99000168  52.84000015
H    20.53999901  34.73999786  56.56999969
H    12.35999966  33.56999969  56.63000107
H    23.22999954  34.79000092  53.95000076
H    22.70999908  35.56000137  55.40000153
S    11.64999962  32.09999847  52.22000122
C     8.97999954  32.15999985  52.90999985
C    10.26000023  32.56000137  53.22000122
C    10.70000076  32.99000168  54.51000214
C     9.70000076  33.06999969  55.45999908
C     8.34000015  32.83000183  55.17000198
C     7.27999973  32.99000168  56.10000229
C     5.98000002  32.65000153  55.81999969
C     5.65999985  32.02000046  54.59000015
C     6.61999989  31.87999916  53.61999893
C     7.94000053  32.34000015  53.87000275
C    12.15000057  33.08000183  54.62999725
C    12.81000042  32.65000153  53.43999863
C    14.19000053  32.52000046  53.34000015
C     4.21999979  31.61000061  54.34999847
H     3.74927998  32.15204239  53.52980804
H     8.82999992  31.56999969  52.02000046
H     9.96000004  33.38999939  56.46999741
H     7.57999992  33.36999893  57.08000183
H     5.15999985  32.90000153  56.49000168
H     6.48999977  31.45000076  52.63000107
H    14.65000057  32.33000183  52.36999893
H     3.61000013  31.77000046  55.25000000
H     4.28999996  30.56999969  54.01000214
S    15.82999992  34.34000015  50.94999695
C    18.48999977  34.59999847  50.02999878
C    17.20999908  34.11999893  49.85000229
C    16.86000061  33.38000107  48.68000031
C    17.81999969  33.23999786  47.70000076
C    19.15999985  33.61999893  47.88999939
C    20.22000122  33.31000137  46.98999786
C    21.53000069  33.65999985  47.22000122
C    21.84000015  34.40999985  48.39000320
C    20.85000038  34.76000214  49.27999878
C    19.52000046  34.27999878  49.12000275
C    15.42000008  33.18000031  48.60000229
C    14.72000027  33.62999725  49.75000000
C    13.32999992  33.68000031  49.77000427
C    23.29000092  34.77000046  48.62999725
H    23.72504997  34.24223709  49.47870255
H    18.78000069  35.18000031  50.90999985
H    17.46999931  32.62000275  46.86999893
H    19.96000099  32.75000000  46.10000229
H    22.29000092  33.36999893  46.51000214
H    21.09000015  35.38999939  50.13000107
H    12.79000092  34.04000092  50.63999939
H    23.90999985  34.65999985  47.74000168
H    23.31000137  35.84999847  48.80000305
S    12.05999947  32.29000092  46.33999634
C     9.35000038  32.37999725  47.08000183
C    10.67000008  32.63000107  47.37999725
C    11.11999989  33.20000076  48.61999893
C    10.14999962  33.65000153  49.50000000
C     8.78000069  33.34999847  49.27000046
C     7.73999977  33.59999847  50.20999908
C     6.39999962  33.38000107  49.98000336
C     6.01999998  32.68000031  48.81000137
C     7.00999975  32.34000015  47.90999985
C     8.38000011  32.66999817  48.06999969
C    12.56999969  33.25999832  48.67000198
C    13.27000046  32.86999893  47.50000000
C    14.65000057  32.73999786  47.51999664
C     4.57999992  32.27000046  48.61000061
H     4.13897800  32.79638290  47.76352310
H     9.06000042  31.87000084  46.16000366
H    10.47999954  34.15000153  50.40999985
H     8.05999947  33.94000244  51.18999863
H     5.65999985  33.44000244  50.77000046
H     6.72999954  31.80999947  47.00000000
H    15.19000053  32.25000000  46.70999908
H     3.97000027  32.34000015  49.52000046
H     4.65999985  31.21000099  48.34999847
