96

S    15.67000008  33.84000015  57.01000214
C    18.35000038  33.95999908  56.14999771
C    17.06999969  33.46999741  55.97999954
C    16.63999939  32.93999863  54.72000122
C    17.61000061  32.95999908  53.73000336
C    18.96999931  33.31000137  53.94000244
C    20.03000069  33.16999817  53.00000000
C    21.32999802  33.58000183  53.16999817
C    21.68000031  34.13000107  54.43000031
C    20.75000000  34.20000076  55.45000076
C    19.40000153  33.82999802  55.20999908
C    15.19999981  32.86000061  54.56999969
C    14.53999996  33.38999939  55.70999908
C    13.17000008  33.58000183  55.80999756
C    23.09000015  34.48999786  54.81999969
H    23.43166351  33.85650253  55.63856506
H    18.57999992  34.57999802  57.01000214
H    17.31999969  32.66999817  52.72999573
H    19.71999931  32.97999954  51.97000122
H    21.97000122  33.58000183  52.29000092
H    20.85000038  34.76000214  56.37000275
H    12.69000053  33.90000153  56.72000122
H    23.74000168  34.27999878  53.95999908
H    23.19000053  35.56000137  55.06000137
S    11.90999985  32.56999969  52.12999725
C     9.26000023  32.23999786  53.04000092
C    10.55999947  32.62000275  53.29000092
C    10.97000027  33.09000015  54.56999969
C    10.00000000  33.32999802  55.52999878
C     8.61999989  33.18000031  55.24000168
C     7.59999990  33.44000244  56.20999908
C     6.30999994  33.08000183  55.90000153
C     5.84999990  32.52999878  54.68000031
C     6.88000011  32.27000046  53.80000305
C     8.25000000  32.56999969  53.99000168
C    12.42000008  33.23999786  54.66999817
C    13.04999924  32.84000015  53.47000122
C    14.40999985  32.59000015  53.43999863
C     4.40000010  32.19000244  54.38000107
H     3.94988537  32.84016418  53.62981033
H     8.97000027  31.59000015  52.22000122
H    10.31999969  33.63999939  56.52000046
H     7.88999987  33.94000244  57.12999725
H     5.50000000  33.32999802  56.58000183
H     6.56000042  31.64999962  52.97000122
H    14.82999992  32.31999969  52.48000336
H     3.84000015  32.13999939  55.31999969
H     4.42000008  31.14000130  54.05000305
S    15.95000076  34.50000000  50.98999786
C    18.60999870  34.81999969  50.20999908
C    17.34000015  34.38999939  49.88999939
C    16.90999985  33.90000153  48.61999893
C    17.93000031  33.61999893  47.72999573
C    19.25000000  34.04000092  47.98999786
C    20.30999947  33.81999969  47.05999756
C    21.53000069  34.41999817  47.22000122
C    21.90000153  35.04000092  48.44999695
C    20.95999908  35.11000061  49.45000076
C    19.63000107  34.65999985  49.22999954
C    15.48999977  33.58000183  48.56999969
C    14.80000019  33.98999786  49.73999786
C    13.40999985  34.08000183  49.78000259
C    23.32999992  35.34000015  48.82999802
H    23.71283913  34.76574326  49.67365646
H    18.86000061  35.36999893  51.11000061
H    17.75000000  32.95999908  46.88999939
H    20.12000084  33.20000076  46.18999863
H    22.20000076  34.36000061  46.37000275
H    21.18000031  35.68000031  50.34999847
H    12.92000008  34.52000046  50.63000107
H    23.94000053  35.15999985  47.94000244
H    23.61000061  36.38999939  48.89999771
S    12.28000069  32.73999786  46.19999695
C     9.55999947  32.79000092  46.90999985
C    10.86999989  33.06999969  47.22999954
C    11.23000050  33.54999924  48.52000427
C    10.24000072  33.77000046  49.47000122
C     8.88000011  33.48999786  49.18000031
C     7.90000010  33.59999847  50.20000076
C     6.58999968  33.29000092  49.87999725
C     6.19000006  32.95999908  48.55999756
C     7.14999962  32.83000183  47.58999634
C     8.53999996  33.01000214  47.85999680
C    12.68000031  33.68999863  48.64999771
C    13.38000107  33.20999908  47.50999832
C    14.75999928  33.08000183  47.48000336
C     4.73000002  32.63000107  48.30999756
H     4.31484079  33.23126221  47.50115585
H     9.28999996  32.36999893  45.93999863
H    10.44000053  34.15000153  50.45999908
H     8.28999996  33.95999908  51.13999939
H     5.79999971  33.52999878  50.58000183
H     6.80999994  32.75000000  46.56000137
H    15.27999973  32.79999924  46.56999969
H     4.15999985  32.77000046  49.22999954
H     4.67999983  31.55999947  48.06999969
