96

S    15.26000023  34.36000061  56.84999847
C    17.94000053  34.26000214  56.16000366
C    16.64999962  33.91999817  55.84999847
C    16.28999901  33.38000107  54.56999969
C    17.31999969  33.22000122  53.66000366
C    18.65999985  33.55999756  53.94000244
C    19.70999908  33.38999939  53.00000000
C    20.98999977  33.75999832  53.34999847
C    21.28000069  34.43999863  54.55999756
C    20.29999924  34.63000107  55.50000000
C    18.98999977  34.17000198  55.20999908
C    14.84000015  33.31000137  54.43999863
C    14.14999962  33.79000092  55.59000015
C    12.76999950  33.93000031  55.51000214
C    22.67000008  34.95999908  54.86999893
H    23.19073296  34.43213272  55.66893387
H    18.22000122  34.61999893  57.15000153
H    17.01000023  32.83000183  52.70000076
H    19.60000038  32.73999786  52.12999725
H    21.84000015  33.51000214  52.71999741
H    20.59000015  35.19000244  56.38999939
H    12.27000046  34.34000015  56.38999939
H    23.36000061  34.87999725  54.02000046
H    22.60000038  36.04000092  55.06000137
S    11.61999893  32.43999863  52.00000000
C     8.89000034  32.43000031  52.76000214
C    10.21999931  32.69000244  53.04999924
C    10.57000065  33.29999924  54.29000092
C     9.57999992  33.50000000  55.22999573
C     8.23000050  33.11000061  55.05000305
C     7.21000004  33.27999878  56.02000427
C     5.89999962  32.90999985  55.79000092
C     5.52999973  32.27000046  54.58000183
C     6.53999996  32.11999893  53.67000198
C     7.90999985  32.52000046  53.77999878
C    12.01000023  33.44000244  54.45000076
C    12.69999981  32.90000153  53.33000183
C    14.09000015  32.81999969  53.36999893
C     4.17000008  31.76000214  54.16999817
H     3.72168255  32.34352493  53.36587524
H     8.60000038  31.97000122  51.81999969
H     9.81000042  34.04999924  56.13999939
H     7.46999979  33.72000122  56.97999954
H     5.15999985  32.84000015  56.59000015
H     6.14000034  31.76000214  52.71999741
H    14.70999908  32.61000061  52.50000000
H     3.47000003  31.76000214  55.00999832
H     4.28000021  30.72000122  53.81999969
S    15.76000023  34.77999878  51.05999756
C    18.47999954  34.87999725  50.37000275
C    17.20000076  34.54000092  50.04000092
C    16.79000092  33.82999802  48.86000061
C    17.82999992  33.58000183  47.98999786
C    19.18000031  33.93000031  48.25000000
C    20.22999954  33.74000168  47.30999756
C    21.51000023  34.20000076  47.54000092
C    21.84999847  34.76000214  48.79000092
C    20.86999893  35.06999969  49.69999695
C    19.54000092  34.63000107  49.45999908
C    15.36000061  33.58000183  48.75999832
C    14.63000107  34.10000229  49.86000061
C    13.26000023  34.27000046  49.93000031
C    23.26000023  35.22000122  49.09999847
H    23.67968178  34.73630142  49.98204041
H    18.73999977  35.15999985  51.38999939
H    17.51000023  33.15999985  47.04000092
H    19.92000008  33.25000000  46.38999939
H    22.17000008  34.10000229  46.68000031
H    21.04000092  35.65999985  50.59999847
H    12.79000092  34.72999954  50.79999924
H    23.82999802  34.93999863  48.20000076
H    23.09000015  36.30000305  49.22999954
S    12.10999966  32.83000183  46.44000244
C     9.43000031  32.70000076  46.97999954
C    10.67999935  33.00000000  47.47000122
C    11.05999947  33.58000183  48.73000336
C     9.96000004  33.95000076  49.47999954
C     8.64000034  33.58000183  49.10999680
C     7.51999950  33.77000046  49.98000336
C     6.24000025  33.29999924  49.80999756
C     5.95000029  32.65999985  48.56999969
C     6.98999977  32.50000000  47.68000031
C     8.34000015  32.93999863  47.85999680
C    12.48999977  33.77999878  48.86000061
C    13.22000027  33.38999939  47.70999908
C    14.59000015  33.18999863  47.65999603
C     4.55000019  32.25000000  48.15999985
H     4.06401634  32.95753479  47.48820114
H     9.30000019  32.36000061  45.96000290
H    10.06999969  34.52999878  50.38999939
H     7.64999962  34.36999893  50.87999725
H     5.42999983  33.40999985  50.52000046
H     6.80000019  31.97000122  46.75000000
H    15.08999920  32.97999954  46.70999908
H     4.05000019  32.13000107  49.13000107
H     4.63999987  31.31000137  47.62000275
