96

S    15.10000038  33.75999832  57.25000000
C    17.79000092  33.90000153  56.39999771
C    16.47999954  33.52999878  56.17000198
C    16.13000107  32.92000198  54.92000198
C    17.09000015  32.68000031  53.95000076
C    18.45000076  33.01000214  54.18000031
C    19.38999939  32.97999954  53.11000061
C    20.65999985  33.50000000  53.26000214
C    21.04000092  34.10000229  54.48999786
C    20.10000038  34.18999863  55.48999786
C    18.78999901  33.65000153  55.41999817
C    14.68000031  32.79999924  54.82999802
C    13.97999954  33.15999985  56.00000000
C    12.61000061  33.31000137  56.11999893
C    22.39999962  34.75000000  54.65000153
H    23.01252365  34.10186386  55.27676773
H    18.12000084  34.48999786  57.25000000
H    16.72000122  32.34000015  52.98999786
H    19.02000046  32.72000122  52.11999893
H    21.40999985  33.50000000  52.47000122
H    20.27000046  34.77000046  56.38999939
H    12.10999966  33.59000015  57.04000092
H    22.85000038  34.87999725  53.66000366
H    22.34000015  35.72000122  55.15999603
S    11.38000011  32.40999985  52.44999695
C     8.76000023  32.14999771  53.13999939
C    10.01999950  32.50999832  53.57999802
C    10.40999985  32.79000092  54.93000031
C     9.35999966  33.02999878  55.79000092
C     8.01999950  32.72999954  55.45000076
C     6.94000006  32.86999893  56.37000275
C     5.64000034  32.59999847  56.04000092
C     5.38000011  32.30999756  54.66999817
C     6.37000036  32.09999847  53.75000000
C     7.73000002  32.29999924  54.09999847
C    11.85999966  32.93000031  54.99000168
C    12.53000069  32.55000305  53.80000305
C    13.90999985  32.43999863  53.72000122
C     3.91999984  31.97000122  54.45999908
H     3.45007443  32.52536774  53.64831161
H     8.61999989  31.88999939  52.09000015
H     9.64999962  33.40999985  56.77000046
H     7.27999973  33.25000000  57.32999802
H     4.78999996  32.57999802  56.72000122
H     6.11999989  31.65999985  52.77999878
H    14.35999966  32.30999756  52.74000168
H     3.30999994  32.29000092  55.31000137
H     3.76999998  30.88000107  54.40999985
S    15.59000015  34.11000061  51.27999878
C    18.23999977  34.31999969  50.51000214
C    17.00000000  33.81000137  50.22999573
C    16.54999924  33.29999924  48.96999741
C    17.57999992  33.22000122  48.04999924
C    18.92000008  33.58000183  48.34000015
C    19.92000008  33.54999924  47.32999802
C    21.18999863  34.00000000  47.56999969
C    21.60000038  34.50000000  48.83999634
C    20.62000084  34.70000076  49.79000092
C    19.30999947  34.17000198  49.59999847
C    15.10000038  33.34999847  48.81000137
C    14.42999935  33.72999954  49.99000168
C    13.05999947  33.94000244  50.02999878
C    23.02000046  34.88999939  49.19000244
H    23.54800224  34.21929169  49.86784363
H    18.46999931  34.86000061  51.42000198
H    17.43000031  32.85000229  47.04000092
H    19.55000114  33.31999969  46.32999802
H    22.04999924  33.81000137  46.93999863
H    20.79999924  35.20000076  50.72999954
H    12.67000008  34.38000107  50.94999695
H    23.64999962  34.97999954  48.29000092
H    23.02999878  35.90999985  49.59000015
S    11.82000065  32.99000168  46.36000061
C     9.11999989  32.99000168  47.09000015
C    10.42000008  33.29999924  47.41000366
C    10.84000015  33.68000031  48.73000336
C     9.84000015  33.82999802  49.68000031
C     8.51000023  33.45999908  49.38999939
C     7.49000025  33.62999725  50.37000275
C     6.19999981  33.18999863  50.21999741
C     5.86999989  32.62000275  48.95999908
C     6.77999973  32.50999832  47.93000031
C     8.11999989  32.97000122  48.09000015
C    12.28000069  33.68999863  48.88999939
C    12.94999981  33.31000137  47.70000076
C    14.32999992  33.15000153  47.65999603
C     4.42000008  32.40999985  48.57999802
H     4.01296329  33.15980530  47.90160751
H     8.85999966  32.85000229  46.04000092
H    10.15999985  34.25000000  50.63000107
H     7.71000004  34.20000076  51.26999664
H     5.46999979  33.48999786  50.97000122
H     6.37000036  32.27000046  46.95000076
H    14.86999989  32.90999985  46.75000000
H     3.91000009  32.42000198  49.54999924
H     4.42000008  31.45000076  48.04000092
