96

S    15.62000084  34.01000214  57.18000031
C    18.34000015  34.04000092  56.45999908
C    17.04000092  33.69999695  56.17000198
C    16.73999977  33.04000092  54.93000031
C    17.71000099  32.77000046  53.97999573
C    19.04999924  33.11999893  54.27999878
C    20.13000107  32.86000061  53.39000320
C    21.40000153  33.29999924  53.68000031
C    21.77000046  33.72999954  54.98000336
C    20.73999786  33.97999954  55.86000061
C    19.37999916  33.75000000  55.52999878
C    15.29999924  32.86000061  54.86999893
C    14.52000046  33.38000107  55.93999863
C    13.14000034  33.36000061  56.09000397
C    23.19999886  34.15000153  55.21999741
H    23.62143326  33.42855835  55.92000961
H    18.65999985  34.48999786  57.39999771
H    17.53999901  32.20000076  53.06999969
H    19.89999962  32.30999756  52.48000336
H    22.13999939  33.18000031  52.88999939
H    20.89999962  34.34999847  56.86999893
H    12.56999969  33.79000092  56.90000153
H    23.72999954  34.15999985  54.26000214
H    23.19999886  35.20000076  55.54000092
S    12.10000038  32.15999985  52.49000168
C     9.34000015  32.40999985  53.06000137
C    10.65999985  32.57999802  53.43000031
C    10.97000027  32.88999939  54.79000092
C     9.96999931  33.20000076  55.70000076
C     8.61999989  32.90999985  55.38999939
C     7.50999975  33.16999817  56.24000168
C     6.24000025  32.75000000  55.90999985
C     5.98999977  32.22999954  54.61000061
C     7.00000000  32.11999893  53.68000031
C     8.32999992  32.47999954  54.05000305
C    12.41000080  32.92000198  54.98000336
C    13.15999985  32.40000153  53.88999939
C    14.55000019  32.34999847  53.80000305
C     4.71000004  31.45000076  54.38000107
H     4.02701092  32.13298798  53.87487411
H     9.21000004  31.87999916  52.11999893
H    10.31000042  33.69999695  56.59999847
H     7.59000015  33.47999954  57.28000259
H     5.56999969  32.73999786  56.76000214
H     6.86999989  31.50000000  52.78999710
H    15.06999969  32.06000137  52.90000153
H     4.26999998  31.02999878  55.28999710
H     4.97000027  30.62000084  53.72000122
S    15.72000027  34.15999985  51.50000000
C    18.46999931  34.22000122  50.68000031
C    17.13999939  33.90000153  50.47000122
C    16.75000000  33.38000107  49.19000244
C    17.71000099  33.04000092  48.26000214
C    19.05999947  33.39999771  48.46000290
C    20.07999802  33.22000122  47.48000336
C    21.38000107  33.61999893  47.67000198
C    21.77000046  34.02000046  48.96999741
C    20.86000061  34.11999893  50.00000000
C    19.47000122  33.97000122  49.71000290
C    15.31000042  33.51000214  48.99000168
C    14.60000038  33.94000244  50.13999939
C    13.22000027  34.13000107  50.13999939
C    23.12999916  34.59000015  49.31999969
H    23.71121025  33.83159256  49.84450912
H    18.79999924  34.79000092  51.53999710
H    17.34000015  32.83000183  47.25000000
H    19.63999939  32.93000031  46.52000046
H    22.15999985  33.61999893  46.90999985
H    21.17000198  34.34999847  51.00999832
H    12.72999954  34.38999939  51.06999969
H    23.59999847  34.93000031  48.39000320
H    22.95999908  35.45999908  49.94999695
S    12.15000057  32.70999908  46.53999710
C     9.44000053  32.55000305  47.23999786
C    10.72000027  32.93999863  47.56999969
C    11.03000069  33.59999847  48.80000305
C    10.06000042  33.77000046  49.77000427
C     8.73000050  33.38000107  49.47000122
C     7.63999987  33.56999969  50.35999680
C     6.30999994  33.41999817  50.00999832
C     6.01999998  32.80999756  48.75999832
C     7.05999947  32.43999863  47.95000076
C     8.42000008  32.78000259  48.18999863
C    12.46000099  33.75000000  49.02999878
C    13.15999985  33.31000137  47.87000275
C    14.53999996  33.11999893  47.88999939
C     4.65000010  32.27000046  48.40999985
H     4.29448938  32.80326843  47.52833176
H     9.26999950  32.16999817  46.23000336
H    10.25000000  34.04000092  50.79999924
H     7.82999992  33.97999954  51.33999634
H     5.58000040  33.58000183  50.79000092
H     6.76999998  31.86000061  47.08000183
H    15.06999969  32.72999954  47.02999878
H     3.88000011  32.37999725  49.19000244
H     4.61000013  31.18999863  48.26000214
