96

S    15.22999954  34.17000198  57.05999756
C    17.92000008  34.38000107  56.35000229
C    16.68000031  33.87000275  56.07999802
C    16.36000061  33.06000137  54.93999863
C    17.38999939  32.79000092  54.06000137
C    18.64999962  33.40999985  54.25000000
C    19.70000076  33.25000000  53.30999756
C    20.98999977  33.65000153  53.54999924
C    21.28999901  34.56000137  54.61000061
C    20.23999977  34.84000015  55.45000076
C    18.96999931  34.18999863  55.40999985
C    14.92000008  32.95999908  54.72000122
C    14.19000053  33.58000183  55.76000214
C    12.81000042  33.79000092  55.76000214
C    22.70999908  34.81999969  55.04000092
H    23.07179070  34.16735840  55.83452225
H    18.17000008  35.02999878  57.18000031
H    17.26000023  32.38999939  53.06000137
H    19.48999977  32.65999985  52.42000198
H    21.83000183  33.13000107  53.09000015
H    20.38000107  35.42000198  56.36000061
H    12.48999977  34.08000183  56.76000214
H    23.38000107  34.76000214  54.18000031
H    22.80999947  35.81000137  55.51000214
S    11.69999981  32.09000015  52.39999771
C     8.97999954  32.00999832  53.13999939
C    10.26999950  32.43000031  53.39000320
C    10.52999973  33.18999863  54.58000183
C     9.48000050  33.52999878  55.40999985
C     8.14999962  33.11000061  55.18000031
C     7.04999971  33.38000107  56.04000092
C     5.80999947  32.81999969  55.84999847
C     5.55999994  32.13999939  54.62999725
C     6.57999992  31.87000084  53.74000168
C     7.90000010  32.31999969  54.01000214
C    11.97999954  33.29999924  54.75000000
C    12.74000072  32.72000122  53.69999695
C    14.09999943  32.45999908  53.69999695
C     4.18000031  31.56999969  54.40000153
H     3.66733265  32.11827087  53.60963821
H     8.75000000  31.40999985  52.27000427
H     9.77999973  33.98999786  56.35000229
H     7.26000023  33.91999817  56.95999908
H     5.07000017  33.02999878  56.62000275
H     6.42000008  31.35999870  52.78999710
H    14.57999992  31.87000084  52.91999817
H     3.58000016  31.64999962  55.31000137
H     4.23000002  30.52000046  54.08000183
S    11.92999935  30.17000008  49.31999969
C     9.28999996  29.44999886  50.11000061
C    10.65000057  29.43000031  50.30000305
C    11.17000008  28.85000038  51.50000000
C    10.31000042  28.36000061  52.47000122
C     8.90999985  28.28000069  52.23999786
C     8.01000023  27.79999924  53.22999954
C     6.65999985  27.96999931  53.02000046
C     6.19999981  28.71000099  51.90000153
C     7.03999996  29.18000031  50.91999817
C     8.39999962  28.78999901  51.00000000
C    12.60000038  29.03000069  51.65000153
C    13.10999966  29.82999992  50.59999847
C    14.44000053  30.23999977  50.61999893
C     4.71000004  28.92000008  51.72000122
H     4.38090801  28.55513763  50.74702835
H     8.82999992  29.99000168  49.27999878
H    10.67000008  28.31999969  53.48999786
H     8.47999954  27.50000000  54.15999985
H     5.96000004  27.53000069  53.73000336
H     6.61999989  29.93999863  50.27000046
H    14.85000038  30.79999924  49.79000092
H     4.05999994  28.42000008  52.45999908
H     4.42000008  29.97999954  51.81000137
S    15.77999973  28.84000015  54.13999939
C    18.43000031  29.41999817  53.46000290
C    17.09000015  29.51000023  53.15000153
C    16.63999939  30.06999969  51.90999985
C    17.56999969  30.59000015  51.02000427
C    18.96000099  30.48000145  51.26999664
C    19.97999954  30.93000031  50.38999939
C    21.31999969  30.72000122  50.63000107
C    21.75000000  30.10999870  51.84000015
C    20.76999855  29.63999939  52.69000244
C    19.37999916  29.84000015  52.49000168
C    15.19999981  29.90999985  51.75000000
C    14.63000107  29.20999908  52.83000183
C    13.35000038  28.68000031  52.78999710
C    23.19000053  29.84000015  52.18000031
H    23.55202103  30.17362785  53.15248871
H    18.76000023  29.07999992  54.43000031
H    17.31999969  31.00000000  50.04000092
H    19.75000000  31.54000092  49.52999878
H    22.01999855  31.14999962  49.92000198
H    21.04000092  28.95999908  53.50000000
H    12.88000011  28.13999939  53.60000229
H    23.82999802  30.17999840  51.36000061
H    23.36000061  28.75999832  52.09000015
