96

S    15.08999920  33.98999786  56.90999985
C    17.76000023  33.68000031  56.35000229
C    16.46999931  33.41999817  55.94999695
C    16.13000107  32.79999924  54.71000290
C    17.14999962  32.55000305  53.81000137
C    18.48999977  32.80999756  54.16999817
C    19.51000023  32.76000214  53.16999817
C    20.78000069  33.15999985  53.50000000
C    21.12999916  33.72000122  54.75000000
C    20.15000153  33.80000305  55.72000122
C    18.81000137  33.41999817  55.43000031
C    14.68000031  32.77000046  54.55999756
C    14.01000023  33.43000031  55.61999893
C    12.64000034  33.63999939  55.59000015
C    22.59000015  34.03000259  54.99000168
H    23.08628082  33.39901352  55.72733307
H    17.85000038  34.20000076  57.29999924
H    16.95999908  32.25000000  52.77999878
H    19.27999878  32.50999832  52.14000320
H    21.50000000  33.02000046  52.70000076
H    20.40999985  34.09000015  56.72999954
H    12.15000057  34.06999969  56.45999908
H    23.13999939  34.06999969  54.03999710
H    22.55000114  35.07999802  55.31000137
S    11.46999931  32.11000061  52.09999847
C     8.80000019  32.11999893  52.75000000
C    10.07999992  32.42000198  53.15999985
C    10.47000027  33.06999969  54.36999893
C     9.43000031  33.34000015  55.24000168
C     8.10999966  32.93000031  54.93999863
C     7.03000021  33.02000046  55.86000061
C     5.71000004  32.92000198  55.47000122
C     5.40999985  32.38999939  54.19000244
C     6.39999962  32.09000015  53.29000092
C     7.73999977  32.36000061  53.67000198
C    11.92000008  33.15000153  54.50000000
C    12.60000038  32.65000153  53.36000061
C    13.96999931  32.45999908  53.39000320
C     4.00999975  31.84999847  54.00000000
H     3.58181739  32.27817917  53.09367752
H     8.64000034  31.64999962  51.79000092
H     9.61999989  33.69999695  56.25000000
H     7.26999998  33.32999802  56.88000107
H     4.86999989  33.18999863  56.10000229
H     6.19999981  31.48999977  52.39999771
H    14.45000076  31.98999786  52.52999878
H     3.35999990  31.81999969  54.88999939
H     4.00000000  30.76000023  53.82999802
S    15.77999973  34.27000046  51.20999908
C    18.47999954  34.40000153  50.45000076
C    17.19000053  34.00000000  50.17000198
C    16.80999947  33.38000107  48.94000244
C    17.78000069  33.29999924  47.95999908
C    19.12999916  33.63999939  48.20000076
C    20.19000053  33.46999741  47.25999832
C    21.51000023  33.62999725  47.63000107
C    21.81999969  34.31000137  48.83999634
C    20.81000137  34.66999817  49.71000290
C    19.47999954  34.22000122  49.47000122
C    15.36999893  33.13000107  48.83999634
C    14.68000031  33.62999725  49.97000122
C    13.30999947  33.87000275  50.00000000
C    23.26999855  34.61999893  49.09999847
H    23.65334129  34.08048248  49.96606445
H    18.78999901  34.77000046  51.43000031
H    17.53000069  32.88000107  46.97999954
H    19.97999954  32.93000031  46.33999634
H    22.30999947  33.23999786  47.00000000
H    21.11999893  35.19000244  50.61000061
H    12.76999950  34.20000076  50.89000320
H    23.87000084  34.27999878  48.25000000
H    23.38999939  35.70000076  49.27000046
S    12.20999908  32.20000076  46.52999878
C     9.48999977  32.36000061  47.04999924
C    10.77000046  32.65999985  47.44999695
C    11.14999962  33.29999924  48.68000031
C    10.06000042  33.58000183  49.47999954
C     8.71999931  33.25000000  49.18000031
C     7.67000008  33.56999969  50.08999634
C     6.34999990  33.31000137  49.80999756
C     6.03999996  32.63000107  48.61000061
C     7.02000046  32.43000031  47.67000198
C     8.40999985  32.65000153  47.90999985
C    12.58999920  33.47999954  48.87000275
C    13.27000046  32.95000076  47.74000168
C    14.63999939  32.72999954  47.71999741
C     4.57999992  32.29999924  48.39000320
H     4.16871738  32.71128464  47.46816254
H     9.31999969  31.65999985  46.23000336
H    10.11999989  34.17000198  50.38999939
H     7.99000025  34.04000092  51.00999832
H     5.55000019  33.65000153  50.45999908
H     6.74000025  31.94000053  46.73999786
H    15.14999962  32.36999893  46.83000183
H     3.98000002  32.63000107  49.25000000
H     4.46999979  31.21000099  48.29999924
