96

S    15.62000084  33.80000305  57.02000046
C    18.27999878  33.81000137  56.24000168
C    16.97000122  33.61000061  55.87999725
C    16.56999969  33.11000061  54.59999847
C    17.61000061  33.09000015  53.68000031
C    18.95000076  33.47999954  53.88999939
C    20.00999832  33.36000061  52.94000244
C    21.34000015  33.56999969  53.20000076
C    21.65999985  33.90999985  54.54000092
C    20.66999817  34.06999969  55.47999954
C    19.29999924  33.80000305  55.25000000
C    15.11999989  32.97999954  54.59000015
C    14.44000053  33.32999802  55.77999878
C    13.05999947  33.51000214  55.87999725
C    23.11000061  34.22000122  54.86000061
H    23.48705864  33.53702545  55.62123108
H    18.59000015  33.95999908  57.27000427
H    17.34000015  32.79000092  52.67000198
H    19.75000000  33.22999954  51.88999939
H    22.06000137  33.51000214  52.38999939
H    20.95999908  34.43000031  56.46999741
H    12.53000069  33.62999725  56.81999969
H    23.64000130  34.13000107  53.90999603
H    23.06999969  35.22999954  55.27999878
S    11.92000008  32.40999985  52.22000122
C     9.19999981  32.52999878  52.80000305
C    10.48999977  32.72999954  53.22999954
C    10.85000038  33.08000183  54.56999969
C     9.82999992  33.09999847  55.48999786
C     8.48999977  32.81999969  55.11000061
C     7.42000008  32.92000198  56.04999924
C     6.11999989  32.70999908  55.68000031
C     5.79999971  32.22999954  54.38000107
C     6.80000019  32.19000244  53.43000031
C     8.14999962  32.50999832  53.75000000
C    12.28999996  33.25000000  54.75000000
C    12.97999954  32.79999924  53.59000397
C    14.35999966  32.70999908  53.43999863
C     4.38000011  31.83000183  54.05000305
H     3.91665077  32.42878723  53.26587296
H     9.02000046  32.20000076  51.77999878
H    10.05000019  33.22000122  56.55000305
H     7.72000027  33.22999954  57.04999924
H     5.29999971  32.72000122  56.38999939
H     6.54999971  31.94000053  52.39999771
H    14.85999966  32.34999847  52.55000305
H     3.84999990  31.87999916  55.00999832
H     4.30000019  30.79000092  53.70999908
S    15.62999916  34.56000137  50.91999817
C    18.26000023  34.77000046  50.21999741
C    17.02000046  34.29999924  49.85000229
C    16.69999886  33.75000000  48.56999969
C    17.75000000  33.52999878  47.70000076
C    19.05999947  33.88000107  48.08000183
C    20.20999908  33.55999756  47.29999924
C    21.48999977  33.82999802  47.71999741
C    21.70999908  34.63999939  48.87000275
C    20.65000153  34.99000168  49.65999985
C    19.32999992  34.59999847  49.29999924
C    15.24000072  33.67000198  48.52000427
C    14.48999977  34.17000198  49.61999893
C    13.10999966  34.33000183  49.61999893
C    23.09000015  35.07999802  49.31999969
H    23.70195007  34.29727173  49.76828766
H    18.39999962  35.29000092  51.16000366
H    17.53999901  33.13000107  46.70999908
H    20.03000069  33.01000214  46.38000107
H    22.25000000  33.68000031  46.95999908
H    20.89999962  35.47999954  50.59999847
H    12.57999992  34.70000076  50.48999786
H    23.52000046  35.45999908  48.37999725
H    23.15000153  35.90999985  50.04000092
S    12.00000000  32.66999817  46.20999908
C     9.30000019  32.59000015  46.97999954
C    10.59999943  32.99000168  47.23999786
C    10.93999958  33.67000198  48.44999695
C     9.90999985  33.98999786  49.31999969
C     8.60000038  33.51000214  49.12000275
C     7.59000015  33.59999847  50.12000275
C     6.26999950  33.27999878  49.87999725
C     5.92000008  32.83000183  48.57999802
C     6.88000011  32.61000061  47.62000275
C     8.25000000  32.85000229  47.88999939
C    12.38000011  33.88000107  48.52000427
C    13.09999943  33.38999939  47.39999771
C    14.48999977  33.31999969  47.38999939
C     4.55000019  32.23999786  48.34999847
H     3.98199153  32.72280884  47.55478668
H     8.96000004  32.20999908  46.02000427
H    10.19999981  34.43999863  50.27000046
H     7.96999979  33.98999786  51.05999756
H     5.52999973  33.38000107  50.65999985
H     6.70000029  32.15999985  46.63999939
H    14.94999981  32.77000046  46.58000183
H     4.03999996  32.42000198  49.29999924
H     4.67000008  31.17000198  48.09999847
