96

S    15.14999962  33.65000153  56.90000153
C    17.77000046  33.59999847  56.18999863
C    16.50000000  33.20999908  55.83000183
C    16.03999901  32.70999908  54.56999969
C    17.05999947  32.45999908  53.67000198
C    18.37000084  32.90000153  53.95000076
C    19.34999847  32.79999924  52.91999817
C    20.65999985  33.11999893  53.15999985
C    21.07000160  33.68000031  54.38999939
C    20.13999939  33.87000275  55.38000107
C    18.78000069  33.48999786  55.20000076
C    14.57999992  32.72999954  54.50000000
C    13.94000053  33.15999985  55.68999863
C    12.56999969  33.34999847  55.76000214
C    22.50999832  34.11999893  54.52999878
H    23.01675987  33.54900360  55.30797958
H    17.92000008  34.15000153  57.11000061
H    16.79999924  32.16999817  52.65999603
H    19.00000000  32.47000122  51.93999863
H    21.38000107  32.90000153  52.36999893
H    20.45000076  34.38000107  56.29000092
H    12.10000038  33.67000198  56.68000031
H    23.01000214  34.03000259  53.54999924
H    22.57999802  35.20000076  54.75000000
S    11.30000019  31.98999786  52.18999863
C     8.69999981  31.87999916  52.97999954
C     9.96999931  32.23999786  53.34999847
C    10.36000061  32.88999939  54.55999756
C     9.35999966  33.11000061  55.48999786
C     8.05000019  32.66999817  55.20000076
C     7.03000021  32.88999939  56.17000198
C     5.73000002  32.52999878  55.93999863
C     5.36999989  31.97000122  54.68999863
C     6.30999994  31.76000214  53.72000122
C     7.68000031  32.07999802  53.94000244
C    11.80999947  33.04000092  54.61999893
C    12.42000008  32.52000046  53.44999695
C    13.81000042  32.44999695  53.36999893
C     3.95000005  31.52000046  54.40000153
H     3.48724413  32.20345306  53.68806839
H     8.56999969  31.35000038  52.02999878
H     9.48000050  33.55999756  56.46999741
H     7.22000027  33.48999786  57.05999756
H     5.05000019  32.70000076  56.77999878
H     5.95000029  31.45999908  52.72999573
H    14.29999924  32.20000076  52.43000031
H     3.25999999  31.55999947  55.25000000
H     3.96000004  30.52000046  53.95000076
S    12.20000076  30.06000137  49.41999817
C     9.52999973  29.44999886  50.04000092
C    10.85999966  29.38999939  50.38000107
C    11.36000061  28.88999939  51.63000107
C    10.47000027  28.19000053  52.42000198
C     9.09000015  28.26999855  52.12999725
C     8.14999962  27.75000000  53.06999969
C     6.77999973  27.80999947  52.91999817
C     6.30999994  28.47999954  51.75000000
C     7.17000008  28.88000107  50.76000214
C     8.57999992  28.92000008  50.94999695
C    12.76999950  29.14999962  51.84999847
C    13.35000038  29.84999847  50.76000214
C    14.70999908  30.15000153  50.68000031
C     4.82999992  28.78999901  51.63000107
H     4.38213158  28.23549652  50.80535507
H     9.17000008  29.99000168  49.16999817
H    10.72999954  27.67999840  53.34999847
H     8.46000004  27.18000031  53.93000031
H     6.05999994  27.34000015  53.56999969
H     6.86999989  29.40000153  49.86000061
H    15.19999981  30.52000046  49.79000092
H     4.42000008  28.52000046  52.61000061
H     4.63999987  29.86000061  51.53999710
S    16.11999893  28.57999992  54.09000015
C    18.81000137  29.01000023  53.30999756
C    17.46000099  29.15999985  53.08000183
C    16.95000076  29.64999962  51.83000183
C    17.87999916  30.15999985  50.94999695
C    19.27999878  29.97999954  51.09000397
C    20.19000053  30.59000015  50.18000031
C    21.54000092  30.61000061  50.44000244
C    21.96000099  30.09000015  51.69000244
C    21.12999916  29.51000023  52.63000107
C    19.73999977  29.41999817  52.32999802
C    15.48999977  29.70000076  51.73999786
C    14.93000031  29.02000046  52.84999847
C    13.56999969  28.72999954  52.91999817
C    23.35000038  30.52000046  52.09999847
H    23.84703827  29.86674881  52.81715775
H    19.19999886  28.68999863  54.27000046
H    17.53000069  30.84000015  50.18000031
H    19.84000015  31.27000046  49.40000153
H    22.13000107  31.27000046  49.80999756
H    21.48999977  29.23999977  53.61000061
H    13.03999996  28.06999969  53.60000229
H    23.36999893  31.54000092  52.50000000
H    23.92999840  30.62000084  51.17000198
