96

S    15.47999954  33.84000015  56.97000122
C    18.12999916  33.81000137  56.23000336
C    16.84999847  33.36999893  55.96000290
C    16.46999931  32.86000061  54.66999817
C    17.45000076  32.70999908  53.70999908
C    18.79999924  33.02999878  53.95999908
C    19.84000015  32.90000153  53.00000000
C    21.12999916  33.27000046  53.29000092
C    21.47999954  33.70999908  54.59000015
C    20.48999977  33.90999985  55.52000046
C    19.12999916  33.59000015  55.25000000
C    15.01999950  32.73999786  54.61000061
C    14.34999943  33.20999908  55.76000214
C    12.97000027  33.38999939  55.79999924
C    22.90999985  34.04999924  54.98000336
H    23.33951187  33.41289139  55.75312042
H    18.38999939  34.13000107  57.23999786
H    17.07999992  32.52000046  52.70000076
H    19.68000031  32.40999985  52.04000092
H    21.87999916  33.13999939  52.50999832
H    20.72000122  34.38000107  56.46999741
H    12.41000080  33.84999847  56.60999680
H    23.64000130  34.13999939  54.16999817
H    22.84000015  35.05000305  55.41999817
S    11.77999973  31.90999985  52.29999924
C     9.06999969  32.21999741  52.95999908
C    10.39000034  32.36000061  53.30999756
C    10.77000046  32.86999893  54.59000015
C     9.77000046  33.11000061  55.51000214
C     8.38999939  32.90999985  55.26000214
C     7.35000038  33.02999878  56.22000122
C     6.05999994  32.65000153  55.97000122
C     5.69999981  32.27999878  54.65000153
C     6.69000053  32.19000244  53.68999863
C     8.06999969  32.43999863  53.94000244
C    12.22000027  32.97999954  54.68000031
C    12.90999985  32.52999878  53.53000259
C    14.28999996  32.45999908  53.44999695
C     4.35999966  31.68000031  54.27999878
H     3.96704340  32.00151062  53.31546783
H     8.85000038  31.94000053  51.93000031
H    10.07999992  33.36000061  56.52999878
H     7.67000008  33.20000076  57.25000000
H     5.44000053  32.31999969  56.79999924
H     6.48000002  31.84999847  52.68000031
H    14.81999969  32.02999878  52.58999634
H     3.67000008  31.94999886  55.07999802
H     4.41000032  30.58000183  54.34999847
S    15.67999935  33.97000122  50.97999954
C    18.38000107  34.18000031  50.31999969
C    17.13000107  33.75000000  49.97000122
C    16.80999947  33.25999832  48.66000366
C    17.86999893  33.15000153  47.77999878
C    19.15999985  33.61999893  48.09999847
C    20.22999954  33.59000015  47.15999985
C    21.47000122  34.06999969  47.50999832
C    21.77000046  34.56999969  48.80000305
C    20.73999786  34.71999741  49.71000290
C    19.45000076  34.20999908  49.38999939
C    15.38000011  33.39999771  48.40000153
C    14.63999939  33.65000153  49.58000183
C    13.26000023  33.77999878  49.65999985
C    23.16999817  35.02999878  49.13999939
H    23.56758690  34.34131622  49.88547897
H    18.56999969  34.50999832  51.33999634
H    17.68000031  32.83000183  46.76000214
H    20.15999985  33.06999969  46.20999908
H    22.20000076  34.08000183  46.70000076
H    20.95999908  35.09999847  50.70000076
H    12.82999992  33.97000122  50.63999939
H    23.75999832  34.90999985  48.22999954
H    23.21000099  36.08000183  49.45000076
S    12.11999989  32.95999908  46.00999832
C     9.46000004  32.40000153  46.70000076
C    10.69000053  32.88999939  47.05999756
C    11.07999992  33.38000107  48.34999847
C    10.11000061  33.45999908  49.33000183
C     8.84000015  32.92000198  48.99000168
C     7.72000027  33.15000153  49.84000397
C     6.44000006  32.75000000  49.58000183
C     6.15000010  32.21999741  48.29000092
C     7.11999989  32.09000015  47.32999802
C     8.45000076  32.44999695  47.69000244
C    12.51999950  33.54000092  48.50000000
C    13.27000046  33.36000061  47.30999756
C    14.65000057  33.23999786  47.22000122
C     4.74000025  31.90999985  47.84000015
H     4.32060385  32.64927673  47.15759277
H     9.30999947  31.97999954  45.70000076
H    10.27999973  33.88999939  50.31000137
H     7.82000017  33.84000015  50.68000031
H     5.68000031  32.97999954  50.31999969
H     7.00000000  31.73000145  46.31000137
H    15.14999962  32.93999863  46.30000305
H     4.19000006  31.83000183  48.77999878
H     4.75000000  30.88999939  47.42000198
