96

S    15.39000034  33.77999878  57.09000015
C    18.02999878  33.91999817  56.27999878
C    16.75000000  33.50000000  55.98999786
C    16.27000046  32.86999893  54.79999924
C    17.22999954  32.70000076  53.81999969
C    18.59000015  33.02000046  54.03999710
C    19.61000061  32.93000031  53.04000092
C    20.92000008  33.27999878  53.27000046
C    21.28999901  33.84000015  54.52000046
C    20.34000015  34.01000214  55.51000214
C    19.01000023  33.58000183  55.30000305
C    14.81999969  32.85000229  54.68000031
C    14.19999981  33.31999969  55.86000061
C    12.81000042  33.43000031  55.84000015
C    22.65000153  34.38000107  54.89999771
H    23.12625313  33.70471573  55.61082458
H    18.22000122  34.48999786  57.18000031
H    16.88999939  32.31999969  52.85999680
H    19.26000023  32.63000107  52.05999756
H    21.52000046  33.15999985  52.37999725
H    20.56999969  34.38999939  56.50000000
H    12.36999989  33.52999878  56.81999969
H    23.19999886  34.48999786  53.95999908
H    22.62000084  35.33000183  55.44000244
S    11.69000053  32.26000214  52.18999863
C     9.02999973  32.11000061  52.91999817
C    10.31999969  32.36000061  53.30999756
C    10.59999943  32.90000153  54.61000061
C     9.55999947  33.08000183  55.50000000
C     8.21000004  32.79000092  55.17000198
C     7.16000032  32.86999893  56.12999725
C     5.84999990  32.77000046  55.70999908
C     5.60999966  32.21999741  54.41999817
C     6.61999989  31.97000122  53.53000259
C     7.96999979  32.33000183  53.82999802
C    12.03999996  33.06999969  54.72999954
C    12.74000072  32.73999786  53.54000092
C    14.11999893  32.56000137  53.50000000
C     4.23999977  31.65999985  54.10999680
H     3.76196384  32.19511414  53.28948975
H     8.80999947  31.63000107  51.97000122
H     9.84000015  33.11000061  56.55000305
H     7.37999964  33.08000183  57.16999817
H     5.03000021  32.86000061  56.40999603
H     6.39999962  31.50000000  52.56999969
H    14.56999969  32.15999985  52.60000229
H     3.68000007  31.70999908  55.06000137
H     4.32000017  30.61000061  53.81999969
S    12.15999985  30.31999969  49.47000122
C     9.51000023  29.57999992  50.08999634
C    10.85000038  29.53000069  50.37000275
C    11.40999985  29.04000092  51.59000015
C    10.50000000  28.47999954  52.47000122
C     9.10000038  28.52000046  52.23999786
C     8.19999981  27.89999962  53.15000153
C     6.84999990  27.86000061  52.88999939
C     6.32999992  28.42000008  51.70000076
C     7.17999983  28.90999985  50.72999954
C     8.57999992  28.97000122  50.97999954
C    12.82999992  29.23000145  51.81000137
C    13.36999989  29.94999886  50.72000122
C    14.73000050  30.22000122  50.63999939
C     4.86000013  28.74000168  51.58000183
H     4.39164114  28.17938995  50.77101898
H     9.02999973  30.17999840  49.31999969
H    10.93999958  27.84000015  53.22999954
H     8.60000038  27.47999954  54.06999969
H     6.15999985  27.67000008  53.70999908
H     6.76999998  29.56999969  49.97000122
H    15.29000092  30.55999947  49.77000427
H     4.35999966  28.51000023  52.52999878
H     4.71000004  29.82000160  51.45000076
S    16.20000076  28.59999847  53.97999573
C    18.85000038  28.87000084  53.20999908
C    17.53000069  29.18999863  52.95999908
C    16.97999954  29.79000092  51.79000092
C    17.90999985  30.19000053  50.84999847
C    19.29000092  29.96000099  51.06999969
C    20.23999977  30.62999916  50.24000168
C    21.55999947  30.78000069  50.56999969
C    22.01000023  30.15999985  51.77000046
C    21.18000031  29.46000099  52.61000061
C    19.78999901  29.37999916  52.29000092
C    15.52999973  29.76000023  51.69000244
C    14.96000099  29.13000107  52.83000183
C    13.63000011  28.71999931  52.84999847
C    23.29000092  30.62999916  52.42000198
H    23.84822083  29.97158432  53.08557129
H    19.04000092  28.38999939  54.16999817
H    17.64999962  30.75000000  49.94999695
H    19.88000107  31.15999985  49.36000061
H    22.18000031  31.45000076  49.97000122
H    21.50000000  29.07999992  53.57999802
H    13.12000084  28.15999985  53.62999725
H    23.03999901  31.60000038  52.87000275
H    23.97999954  30.86000061  51.59000015
