96

S    15.13000011  34.18000031  57.11999893
C    17.81999969  34.33000183  56.45000076
C    16.54000092  34.03000259  56.04999924
C    16.21000099  33.46999741  54.78000259
C    17.22999954  33.25000000  53.87000275
C    18.56999969  33.56999969  54.15999985
C    19.56999969  33.38999939  53.16999817
C    20.88999939  33.62999725  53.46000290
C    21.18999863  34.05999756  54.78000259
C    20.20999908  34.31000137  55.70999908
C    18.82999992  34.03000259  55.50000000
C    14.78999996  33.15999985  54.66999817
C    14.07999992  33.56999969  55.83000183
C    12.69000053  33.65999985  55.80999756
C    22.60999870  34.48999786  55.04000092
H    22.96442795  34.05759811  55.97568893
H    18.11000061  34.90999985  57.32999802
H    17.01000023  32.80999756  52.90000153
H    19.29000092  32.93000031  52.22000122
H    21.64999962  33.27999878  52.77000046
H    20.50000000  34.86000061  56.59999847
H    12.22000027  33.90000153  56.76000214
H    23.34000015  34.17000198  54.29000092
H    22.67000008  35.59000015  54.99000168
S    11.64000034  32.22999954  52.29000092
C     8.92000008  32.09000015  52.90999985
C    10.18000031  32.54000092  53.25000000
C    10.50000000  33.16999817  54.50000000
C     9.44000053  33.36000061  55.37000275
C     8.13000011  32.93999863  55.06999969
C     7.03000021  33.00000000  55.97000122
C     5.73999977  32.77000046  55.54000092
C     5.51000023  32.31999969  54.20999908
C     6.53999996  31.94999886  53.37999725
C     7.83999968  32.38999939  53.76999664
C    11.92999935  33.36999893  54.68000031
C    12.68000031  32.85000229  53.59000397
C    14.06000042  32.78000259  53.53000259
C     4.09999990  31.91999817  53.83999634
H     3.55800629  32.80430603  53.50481796
H     8.80999947  31.61999893  51.93000031
H     9.57999992  33.68000031  56.39999771
H     7.17000008  33.39999771  56.97000122
H     4.88999987  32.88999939  56.20999908
H     6.34999990  31.55999947  52.37999725
H    14.55999947  32.52999878  52.60000229
H     3.65000010  31.34000015  54.65000153
H     4.19999981  31.28000069  52.95000076
S    12.48999977  30.29000092  49.31000137
C     9.81000042  29.70999908  49.93999863
C    11.14999962  29.61000061  50.24000168
C    11.59000015  28.95000076  51.44000244
C    10.62999916  28.48999977  52.32999802
C     9.25000000  28.59000015  52.02999878
C     8.26000023  28.06999969  52.90000153
C     6.91999960  28.29000092  52.68000031
C     6.48000002  28.92000008  51.49000168
C     7.40999985  29.30999947  50.54999924
C     8.80999947  29.23999977  50.83000183
C    13.02000046  29.13999939  51.63000107
C    13.66000080  29.82999992  50.56000137
C    14.96000099  30.31999969  50.56000137
C     5.00000000  29.18999863  51.33999634
H     4.52848196  28.69705009  50.48983765
H     9.52999973  30.09000015  48.95999908
H    10.95999908  28.08000183  53.27999878
H     8.60999966  27.70000076  53.86000061
H     6.19000006  28.11000061  53.46000290
H     7.13000011  29.77999878  49.61000061
H    15.32999992  30.97999954  49.78000259
H     4.55000019  28.80000114  52.25999832
H     4.86000013  30.28000069  51.36000061
S    16.45000076  28.51000023  53.77999878
C    19.07999992  29.27999878  53.22999954
C    17.75000000  29.34000015  52.90000153
C    17.22999954  30.00999832  51.75000000
C    18.11000061  30.68000031  50.91999817
C    19.48999977  30.65000153  51.19999695
C    20.45000076  31.27000046  50.34999847
C    21.77999878  31.04999924  50.61999893
C    22.26000023  30.55000114  51.86000061
C    21.35999870  29.90999985  52.69000244
C    19.98999977  29.89999962  52.32999802
C    15.77999973  29.89000130  51.59999847
C    15.21999931  29.11000061  52.63999939
C    13.86000061  28.80000114  52.69000244
C    23.74000168  30.36999893  52.09999847
H    24.10139275  30.49755096  53.12040329
H    19.50000000  28.78000069  54.09999847
H    17.75000000  31.11000061  49.98000336
H    20.12000084  31.76000214  49.43999863
H    22.46999931  31.21999931  49.79999924
H    21.63000107  29.18000031  53.44999695
H    13.55999947  28.12999916  53.48999786
H    24.37000084  30.93000031  51.39999771
H    23.94000053  29.34000015  51.79000092
