96

S    15.38000011  33.68999863  56.88000107
C    18.09000015  33.84000015  56.19999695
C    16.81999969  33.41999817  55.87999725
C    16.50000000  32.86999893  54.59999847
C    17.53000069  32.63999939  53.70999908
C    18.86999893  33.01000214  54.01000214
C    19.95000076  32.72000122  53.13000107
C    21.22999954  33.04000092  53.50999832
C    21.54999924  33.59000015  54.78000259
C    20.52000046  33.74000168  55.68000031
C    19.15999985  33.51000214  55.33000183
C    15.06000042  32.83000183  54.38000107
C    14.32999992  33.20000076  55.54000092
C    12.94999981  33.27999878  55.65999985
C    22.98999977  33.94000244  55.10000229
H    23.40260506  33.32109451  55.89675140
H    18.36000061  34.38000107  57.11000061
H    17.31999969  32.30999756  52.70000076
H    19.84000015  32.30999756  52.12999725
H    22.01000023  33.00000000  52.75000000
H    20.65999985  34.27999878  56.60999680
H    12.43000031  33.68000031  56.52000046
H    23.59999847  33.88999939  54.19000244
H    22.96999931  34.97000122  55.47999954
S    11.72000027  31.98999786  52.15000153
C     9.02999973  32.20999908  52.81999969
C    10.34000015  32.37999725  53.20000076
C    10.73999977  32.85000229  54.48999786
C     9.77000046  33.04999924  55.45999908
C     8.43000031  32.75000000  55.13999939
C     7.42000008  33.13000107  56.05999756
C     6.07999992  32.95000076  55.79000092
C     5.69000006  32.47999954  54.51000214
C     6.63000011  32.27999878  53.53000259
C     8.02999973  32.36999893  53.81000137
C    12.18999958  32.85000229  54.55999756
C    12.89999962  32.40999985  53.40999985
C    14.27999973  32.40000153  53.29999924
C     4.26999998  32.06999969  54.20999908
H     3.88070583  32.33188629  53.22614670
H     8.71999931  32.11999893  51.77999878
H    10.00000000  33.65000153  56.33999634
H     7.81000042  33.50000000  57.00000000
H     5.28999996  32.95000076  56.53999710
H     6.34999990  31.90000153  52.55000305
H    14.80000019  32.07999802  52.39999771
H     3.61000013  32.38999939  55.02999878
H     4.19999981  30.97999954  54.25000000
S    15.31000042  34.47000122  51.26999664
C    18.04000092  34.18999863  50.65000153
C    16.72999954  33.91999817  50.35999680
C    16.39000130  33.27999878  49.13000107
C    17.38000107  33.06000137  48.18000031
C    18.73999977  33.38999939  48.40000153
C    19.86999893  33.09999847  47.58999634
C    21.15999985  33.52000046  47.81000137
C    21.38999939  34.29000092  48.99000168
C    20.36000061  34.52999878  49.86999893
C    19.04000092  34.04000092  49.65000153
C    14.94999981  33.27000046  48.94000244
C    14.22999954  33.90000153  49.99000168
C    12.84999943  34.01000214  49.93000031
C    22.73999977  34.95999908  49.13999939
H    23.37394333  34.31893158  49.75257492
H    18.35000038  34.57999802  51.62000275
H    17.14999962  32.56999969  47.23999786
H    19.72999954  32.66999817  46.59999847
H    21.87000084  33.34000015  47.01000214
H    20.55000114  35.12000275  50.76000214
H    12.30000019  34.29999924  50.81999969
H    23.18000031  35.15000153  48.15000153
H    22.60999870  35.95000076  49.59000015
S    11.87999916  32.63999939  46.36000061
C     9.19000053  32.29999924  46.95999908
C    10.40999985  32.83000183  47.34000397
C    10.70000076  33.29000092  48.66000366
C     9.61000061  33.58000183  49.45999908
C     8.32999992  33.13000107  49.06999969
C     7.11999989  33.41999817  49.77000427
C     5.82999992  33.09999847  49.43999863
C     5.63000011  32.40000153  48.20999908
C     6.74000025  32.11000061  47.44999695
C     8.06999969  32.47000122  47.81000137
C    12.13000107  33.45000076  48.86000061
C    12.90999985  33.00000000  47.76000214
C    14.28999996  32.83000183  47.77999878
C     4.28000021  31.86000061  47.83000183
H     3.87372279  32.35181046  46.94617081
H     8.97000027  31.80000114  46.02000427
H     9.72000027  34.11999893  50.40000153
H     7.30000019  33.97000122  50.68999863
H     4.98000002  33.18999863  50.11000061
H     6.69000053  31.61999893  46.49000168
H    14.85999966  32.62000275  46.88000107
H     3.56999993  31.87000084  48.68000031
H     4.44000006  30.81999969  47.50999832
