96

S    15.29999924  33.79000092  57.02999878
C    17.97000122  33.79000092  56.35000229
C    16.69000053  33.47999954  55.97000122
C    16.31000137  32.84000015  54.73999786
C    17.35000038  32.70000076  53.85000229
C    18.70000076  33.01000214  54.15999985
C    19.78000069  32.63999939  53.31999969
C    21.09000015  32.88999939  53.66000366
C    21.38000107  33.68999863  54.79999924
C    20.36999893  34.02000046  55.66999817
C    19.03000069  33.59999847  55.43000031
C    14.85000038  32.83000183  54.65000153
C    14.14000034  33.25000000  55.79999924
C    12.76999950  33.44000244  55.84000015
C    22.79000092  34.22999954  54.93999863
H    23.28101158  33.70340729  55.75835419
H    18.17000008  34.18999863  57.34000397
H    17.12000084  32.38999939  52.83000183
H    19.64999962  32.14999771  52.36000061
H    21.80000114  32.68000031  52.85999680
H    20.63999939  34.40999985  56.65000153
H    12.13999939  33.84999847  56.63000107
H    23.23999786  34.03000259  53.95000076
H    22.76000023  35.31999969  54.98000336
S    11.67000008  32.16999817  52.21000290
C     8.97999954  32.06999969  52.88000107
C    10.24000072  32.54000092  53.20000076
C    10.62999916  33.00000000  54.48999786
C     9.64999962  33.09999847  55.45999908
C     8.30999947  32.76000214  55.14999771
C     7.23000002  32.85000229  56.07999802
C     5.93999958  32.49000168  55.79999924
C     5.58000040  32.09999847  54.47999954
C     6.58999968  32.06000137  53.54000092
C     7.96999979  32.22999954  53.86000061
C    12.06999969  33.13000107  54.65999985
C    12.76999950  32.70000076  53.50000000
C    14.11999893  32.36000061  53.54999924
C     4.19000006  31.80999947  53.95999908
H     3.79256225  32.49132156  53.20770645
H     8.75000000  31.59000015  51.93999863
H     9.88000011  33.58000183  56.40999603
H     7.37999964  33.13000107  57.11999893
H     5.13000011  32.63999939  56.51000214
H     6.32000017  31.93000031  52.50000000
H    14.63000107  31.77000046  52.80000305
H     3.51999998  31.68999863  54.81999969
H     4.21999979  30.81999969  53.47999954
S    15.62000084  33.97999954  51.23000336
C    18.32999992  33.91999817  50.56000137
C    17.02999878  33.72999954  50.18000031
C    16.67000008  33.27999878  48.87000275
C    17.71000099  33.01000214  48.00000000
C    19.04999924  33.34999847  48.31999969
C    20.06999969  33.18999863  47.34000397
C    21.40000153  33.27999878  47.67000198
C    21.71999931  33.88999939  48.90999603
C    20.76999855  34.09000015  49.88999939
C    19.40000153  33.77000046  49.65000153
C    15.21999931  33.13000107  48.80000305
C    14.48999977  33.65999985  49.89999771
C    13.09999943  33.72000122  49.95999908
C    23.15000153  34.31000137  49.15000153
H    23.53481293  33.85392761  50.06214905
H    18.61999893  34.18999863  51.58000183
H    17.53000069  32.56000137  47.02000046
H    19.84000015  33.04000092  46.27999878
H    22.18000031  33.13999939  46.93000031
H    21.09999847  34.57999802  50.79999924
H    12.64000034  34.04000092  50.89000320
H    23.71999931  33.91999817  48.29000092
H    23.32999992  35.38999939  49.13000107
S    11.98999977  32.49000168  46.38000107
C     9.23999977  32.56000137  47.02000046
C    10.54999924  32.79000092  47.36999893
C    10.90999985  33.36000061  48.63999939
C     9.88000011  33.68999863  49.50000000
C     8.52000046  33.38999939  49.22999954
C     7.42999983  33.77999878  50.05000305
C     6.11999989  33.56999969  49.66999817
C     5.88000011  32.72999954  48.54999924
C     6.86999989  32.43000031  47.64999771
C     8.19999981  32.84000015  47.94000244
C    12.34000015  33.25000000  48.88000107
C    13.07000065  32.78000259  47.76000214
C    14.45000076  32.72999954  47.70999908
C     4.51999998  32.09999847  48.36999893
H     3.90852094  32.78258133  47.77985382
H     8.98999977  31.90000153  46.18999863
H    10.06000042  34.06999969  50.51000214
H     7.65999985  34.18000031  51.03000259
H     5.27999973  33.88000107  50.28999710
H     6.69000053  31.75000000  46.81999969
H    14.98000050  32.34000015  46.84000015
H     4.09000015  31.91999817  49.36000061
H     4.67000008  31.11999893  47.90000153
