96

S    15.01999950  33.97000122  57.02000046
C    17.75000000  34.10000229  56.26999664
C    16.46000099  33.72000122  56.00999832
C    16.06999969  33.06999969  54.79999924
C    17.04000092  32.79000092  53.83999634
C    18.37000084  33.20999908  54.05000305
C    19.34000015  33.06000137  53.01000214
C    20.62999916  33.46999741  53.23999786
C    21.02999878  34.01000214  54.50000000
C    20.09000015  34.22000122  55.48999786
C    18.73999977  33.82999802  55.28999710
C    14.63000107  33.04000092  54.62999725
C    13.88000011  33.48999786  55.75000000
C    12.50000000  33.65000153  55.72999954
C    22.49000168  34.31000137  54.72999954
H    22.84617043  33.70450974  55.56343842
H    17.95999908  34.59999847  57.22000122
H    16.84000015  32.30999756  52.88000107
H    19.09000015  32.79000092  51.98999786
H    21.28999901  33.43000031  52.37999725
H    20.38999939  34.68000031  56.42000198
H    12.02999973  34.29999924  56.45999908
H    23.09999847  34.18999863  53.82999802
H    22.59000015  35.38999939  54.93000031
S    11.39000034  32.25000000  52.22999954
C     8.63000011  32.29000092  52.83000183
C     9.94000053  32.47000122  53.22000122
C    10.29999924  33.04999924  54.47999954
C     9.30000019  33.25999832  55.40999985
C     7.94000053  33.06999969  55.07999802
C     6.93000031  33.13999939  56.07999802
C     5.65000010  32.72000122  55.79000092
C     5.32999992  32.16999817  54.52000046
C     6.28000021  32.07999802  53.53000259
C     7.60999966  32.52999878  53.77999878
C    11.73999977  33.18999863  54.65000153
C    12.48999977  32.77000046  53.52000427
C    13.86999989  32.63999939  53.52000427
C     3.88999987  31.86000061  54.18000031
H     3.49766660  32.43066788  53.33826828
H     8.31999969  31.84999847  51.88000107
H     9.59999943  33.72000122  56.35000229
H     7.31999969  33.34999847  57.06999969
H     4.90999985  33.02000046  56.52999878
H     5.92000008  31.87000084  52.52999878
H    14.34000015  32.31999969  52.58999634
H     3.35000014  32.19000244  55.07999802
H     3.78999996  30.76999855  54.20000076
S    15.32999992  34.29999924  51.11999893
C    18.04000092  34.50000000  50.41999817
C    16.77000046  34.04000092  50.12000275
C    16.45000076  33.52999878  48.81999969
C    17.42000008  33.41999817  47.84000015
C    18.71999931  33.90999985  48.11999893
C    19.76000023  33.84999847  47.15000153
C    21.05999947  34.27999878  47.30999756
C    21.38000107  34.65999985  48.62999725
C    20.39999962  34.79999924  49.59000015
C    19.03000069  34.45000076  49.40999985
C    15.01000023  33.45999908  48.64999771
C    14.25000000  33.90000153  49.77000427
C    12.86999893  33.90999985  49.84000397
C    22.81999969  34.77000046  49.08000183
H    23.22448349  33.94684219  49.66898727
H    18.27999878  34.84999847  51.42000198
H    17.14999962  33.01000214  46.88000107
H    19.54000092  33.36999893  46.19999695
H    21.83000183  34.06999969  46.58000183
H    20.63999939  35.13999939  50.59999847
H    12.23000050  34.04000092  50.70999908
H    23.46999931  34.93000031  48.20999908
H    22.95999908  35.70000076  49.64000320
S    11.78999996  32.56000137  46.26999664
C     9.06999969  32.59000015  46.88000107
C    10.34999943  32.90999985  47.25000000
C    10.72000027  33.48999786  48.50999832
C     9.71000004  33.70999908  49.41999817
C     8.36000061  33.43000031  49.09000015
C     7.30999994  33.54000092  50.05000305
C     6.01000023  33.20000076  49.73999786
C     5.69000006  32.66999817  48.46000290
C     6.69000053  32.52999878  47.50999832
C     8.03999996  32.86999893  47.81000137
C    12.15999985  33.62999725  48.66000366
C    12.88000011  33.06000137  47.57999802
C    14.27000046  33.06000137  47.52999878
C     4.30999994  32.15999985  48.11000061
H     3.89057708  32.65761948  47.23561096
H     8.84000015  31.97000122  46.02000427
H    10.00000000  33.75999832  50.47000122
H     7.55999994  34.04999924  50.97000122
H     5.27999973  33.13999939  50.54000092
H     6.48999977  31.96000099  46.60999680
H    14.80999947  32.79999924  46.63000107
H     3.63999987  32.33000183  48.95000076
H     4.55000019  31.09999847  47.97999954
