96

S    15.08999920  33.84000015  56.98999786
C    17.80999947  33.52999878  56.44000244
C    16.51000023  33.22000122  56.11999893
C    16.13000107  32.62000275  54.87999725
C    17.13999939  32.33000183  53.97999573
C    18.46999931  32.76000214  54.20000076
C    19.52999878  32.65000153  53.27000046
C    20.81999969  33.02999878  53.54999924
C    21.14999962  33.52999878  54.84000397
C    20.17000008  33.69999695  55.79000092
C    18.82999992  33.31000137  55.47999954
C    14.68000031  32.62000275  54.69999695
C    13.96999931  33.29000092  55.72999954
C    12.57999992  33.36999893  55.80999756
C    22.55000114  34.04000092  55.06999969
H    23.08539009  33.47605515  55.83382416
H    18.18000031  34.05999756  57.30999756
H    16.90999985  31.87999916  53.02000046
H    19.20999908  32.36999893  52.27000427
H    21.54000092  33.13000107  52.72999573
H    20.30999947  34.25000000  56.72000122
H    12.05999947  33.97000122  56.56000137
H    23.08000183  34.22000122  54.13000107
H    22.43999863  35.02000046  55.54999924
S    11.40999985  32.09999847  52.28000259
C     8.71000004  32.40000153  52.88999939
C    10.01999950  32.62000275  53.25000000
C    10.40999985  33.02999878  54.56999969
C     9.39999962  33.29000092  55.47999954
C     8.05000019  33.01000214  55.14999771
C     7.07000017  33.09000015  56.18000031
C     5.73999977  32.84000015  55.89000320
C     5.38000011  32.26000214  54.64000320
C     6.32999992  32.09999847  53.66000366
C     7.67000008  32.56000137  53.83999634
C    11.84999943  32.90000153  54.71000290
C    12.56000042  32.37999725  53.60000229
C    13.93000031  32.13000107  53.62999725
C     3.98999977  31.75000000  54.38000107
H     3.53571796  32.21847916  53.50692749
H     8.40999985  32.00999832  51.93000031
H     9.71000004  33.68000031  56.44000244
H     7.40000010  33.40999985  57.15999985
H     5.03999996  32.93999863  56.70999908
H     6.12999964  31.68999863  52.67000198
H    14.40000057  31.50000000  52.88000107
H     3.35000014  31.98999786  55.24000168
H     3.86000013  30.65999985  54.29999924
S    15.25000000  33.88999939  51.10000229
C    18.00000000  34.03000259  50.45999908
C    16.72000122  33.67000198  50.13000107
C    16.36999893  33.34999847  48.77999878
C    17.38000107  33.20999908  47.84000015
C    18.71000099  33.55999756  48.18999863
C    19.73999977  33.62999725  47.21000290
C    21.02999878  33.97000122  47.54000092
C    21.37000084  34.41999817  48.83999634
C    20.36000061  34.50999832  49.77000427
C    19.05999947  33.97000122  49.52000046
C    14.93999958  33.45000076  48.50000000
C    14.21000004  33.77999878  49.65999985
C    12.82999992  33.90000153  49.80999756
C    22.78000069  34.88999939  49.13999939
H    23.37700462  34.29299545  49.82939911
H    18.05999947  34.36999893  51.49000168
H    16.97000122  33.04999924  46.84999847
H    19.60000038  33.34999847  46.17000198
H    21.70000076  33.88999939  46.68000031
H    20.53999901  34.79000092  50.79999924
H    12.35000038  33.88000107  50.77999878
H    23.29999924  34.94999695  48.18000031
H    22.69000053  35.95000076  49.40999985
S    11.71000004  32.62000275  46.25000000
C     8.97000027  32.66999817  46.91999817
C    10.29000092  32.76000214  47.30999756
C    10.64000034  33.22999954  48.61000061
C     9.63999939  33.43000031  49.54999924
C     8.31999969  33.08000183  49.20000076
C     7.23999977  33.34000015  50.10000229
C     5.95000029  32.97999954  49.75999832
C     5.59000015  32.50000000  48.47999954
C     6.60000038  32.29000092  47.56999969
C     7.94000053  32.63000107  47.88999939
C    12.05000019  33.58000183  48.68999863
C    12.79000092  33.16999817  47.55000305
C    14.15999985  33.15999985  47.36999893
C     4.18000031  32.04999924  48.15999985
H     3.66015720  32.69090271  47.44788742
H     8.65999985  32.36999893  45.91999817
H     9.81000042  34.05999756  50.41999817
H     7.55999994  33.74000168  51.04999924
H     5.23000002  32.86999893  50.56999969
H     6.38000011  32.07999802  46.52000046
H    14.63000107  32.93999863  46.42000198
H     3.75999975  31.93000031  49.15999985
H     4.23999977  31.04000092  47.72999573
