96

S    15.00000000  33.90000153  57.04999924
C    17.71000099  34.04000092  56.39999771
C    16.44000053  33.65999985  56.04999924
C    16.10000038  33.04999924  54.79999924
C    17.13999939  32.75000000  53.93000031
C    18.46999931  33.13000107  54.20999908
C    19.48999977  33.06000137  53.22000122
C    20.75000000  33.54000092  53.47000122
C    21.02999878  34.18999863  54.69999695
C    20.06999969  34.25000000  55.70000076
C    18.75000000  33.77999878  55.47000122
C    14.68000031  33.09999847  54.50000000
C    13.96999931  33.55999756  55.63999939
C    12.58999920  33.68000031  55.61999893
C    22.40999985  34.69000244  55.05000305
H    22.90694618  34.08656693  55.80961609
H    17.92000008  34.50999832  57.36000061
H    16.90999985  32.38999939  52.93000031
H    19.25000000  32.69000244  52.22999954
H    21.48999977  33.47999954  52.67000198
H    20.30999947  34.73999786  56.63999939
H    12.03999996  34.20000076  56.39999771
H    22.96999931  34.63000107  54.09999847
H    22.50999832  35.75000000  55.30000305
S    11.42000008  32.66999817  52.01000214
C     8.71999931  32.57999802  52.72999573
C     9.98999977  33.01000214  53.01000214
C    10.38000011  33.52000046  54.29999924
C     9.39999962  33.62999725  55.27000046
C     8.09000015  33.18000031  54.99000168
C     7.07999992  33.13999939  56.00000000
C     5.78000021  32.75000000  55.79000092
C     5.44000053  32.27000046  54.48999786
C     6.38000011  32.20000076  53.48999786
C     7.69000006  32.70999908  53.68999863
C    11.82999992  33.52000046  54.45999908
C    12.53999901  33.02999878  53.34000015
C    13.90999985  32.77000046  53.37999725
C     3.98999977  31.90999985  54.26000214
H     3.67772770  32.44937897  53.36576462
H     8.48999977  32.02999878  51.81000137
H     9.68999958  33.93000031  56.26999664
H     7.36000013  33.40999985  57.02000046
H     4.96000004  32.97000122  56.45999908
H     6.11999989  31.71999931  52.55000305
H    14.39000034  32.33000183  52.50999832
H     3.38999987  32.27000046  55.10000229
H     3.84999990  30.82999992  54.15000153
S    11.87000084  30.55999947  49.47999954
C     9.19000053  30.06000137  50.22999573
C    10.53999996  29.94999886  50.47999954
C    11.00999928  29.25000000  51.63999939
C    10.11000061  28.80000114  52.58999634
C     8.71999931  28.90000153  52.34000397
C     7.76000023  28.29000092  53.20000076
C     6.42000008  28.23999786  52.87000275
C     5.91000032  28.94000053  51.73999786
C     6.84999990  29.47000122  50.87999725
C     8.25000000  29.48999786  51.12999725
C    12.46000099  29.26000214  51.72000122
C    13.05999947  30.00000000  50.66999817
C    14.42999935  30.28000069  50.63000107
C     4.41000032  28.92000008  51.52000046
H     4.13909531  28.79167747  50.47203064
H     8.85999966  30.59000015  49.33000183
H    10.46000004  28.22000122  53.44999695
H     8.03999996  27.81999969  54.13000107
H     5.72000027  27.70000076  53.48999786
H     6.50000000  29.86999893  49.93999863
H    14.86999989  30.90999985  49.86000061
H     3.91999984  28.19000053  52.18000031
H     3.93000007  29.84000015  51.86000061
S    15.80999947  28.75999832  54.03999710
C    18.50000000  29.30999947  53.47999954
C    17.17000008  29.44000053  53.13000107
C    16.69000053  29.96999931  51.88999939
C    17.71000099  30.45000076  51.09000397
C    19.07999992  30.20999908  51.31999969
C    20.13999939  30.72999954  50.52000046
C    21.47999954  30.69999886  50.86000061
C    21.86000061  30.00000000  52.04000092
C    20.89999962  29.47000122  52.88000107
C    19.52999878  29.61999893  52.55000305
C    15.26000023  29.84000015  51.65999985
C    14.68000031  29.06999969  52.70000076
C    13.31999969  28.78000069  52.71999741
C    23.31999969  29.72999954  52.28000259
H    23.70969772  30.28974724  53.13024902
H    18.77000046  28.94000053  54.45999908
H    17.36999893  30.89999962  50.14999771
H    19.88000107  31.18000031  49.56999969
H    22.15999985  31.21000099  50.19000244
H    21.09999847  28.87000084  53.75999832
H    12.94000053  28.39999962  53.66000366
H    23.98999977  30.02000046  51.45999908
H    23.48999977  28.64999962  52.36999893
