96

S    15.67000008  33.84000015  57.01000214
C    18.35000038  33.95999908  56.14999771
C    17.06999969  33.46999741  55.97999954
C    16.63999939  32.93999863  54.72000122
C    17.61000061  32.95999908  53.73000336
C    18.96999931  33.31000137  53.94000244
C    20.03000069  33.16999817  53.00000000
C    21.32999802  33.58000183  53.16999817
C    21.68000031  34.13000107  54.43000031
C    20.75000000  34.20000076  55.45000076
C    19.40000153  33.82999802  55.20999908
C    15.19999981  32.86000061  54.56999969
C    14.53999996  33.38999939  55.70999908
C    13.17000008  33.58000183  55.80999756
C    23.09000015  34.48999786  54.81999969
H    23.43166351  33.85650253  55.63856506
H    18.57999992  34.57999802  57.01000214
H    17.31999969  32.66999817  52.72999573
H    19.71999931  32.97999954  51.97000122
H    21.97000122  33.58000183  52.29000092
H    20.85000038  34.76000214  56.37000275
H    12.69000053  33.90000153  56.72000122
H    23.74000168  34.27999878  53.95999908
H    23.19000053  35.56000137  55.06000137
S    11.90999985  32.56999969  52.12999725
C     9.26000023  32.23999786  53.04000092
C    10.55999947  32.62000275  53.29000092
C    10.97000027  33.09000015  54.56999969
C    10.00000000  33.32999802  55.52999878
C     8.61999989  33.18000031  55.24000168
C     7.59999990  33.44000244  56.20999908
C     6.30999994  33.08000183  55.90000153
C     5.84999990  32.52999878  54.68000031
C     6.88000011  32.27000046  53.80000305
C     8.25000000  32.56999969  53.99000168
C    12.42000008  33.23999786  54.66999817
C    13.04999924  32.84000015  53.47000122
C    14.40999985  32.59000015  53.43999863
C     4.40000010  32.19000244  54.38000107
H     3.94988537  32.84016418  53.62981033
H     8.97000027  31.59000015  52.22000122
H    10.31999969  33.63999939  56.52000046
H     7.88999987  33.94000244  57.12999725
H     5.50000000  33.32999802  56.58000183
H     6.56000042  31.64999962  52.97000122
H    14.82999992  32.31999969  52.48000336
H     3.84000015  32.13999939  55.31999969
H     4.42000008  31.14000130  54.05000305
S    12.32999992  30.48000145  49.15000153
C     9.72000027  29.99000168  50.08999634
C    11.07999992  29.89999962  50.27000046
C    11.64000034  29.07999992  51.31000137
C    10.72999954  28.52000046  52.18000031
C     9.31999969  28.68000031  52.12999725
C     8.43000031  28.12999916  53.09000015
C     7.09000015  28.39999962  52.95000076
C     6.56000042  28.98999977  51.77000046
C     7.40000010  29.44999886  50.77999878
C     8.80999947  29.36000061  50.97000122
C    13.07999992  29.30999947  51.36000061
C    13.60999966  30.10999870  50.31999969
C    14.94999981  30.46999931  50.26000214
C     5.07000017  28.94000053  51.55000305
H     4.72317457  29.06032753  50.52368164
H     9.36999989  30.62000084  49.27999878
H    11.18000031  27.88999939  52.95000076
H     8.86999989  27.67000008  53.96999741
H     6.44000006  27.95000076  53.69999695
H     6.96000004  30.05000114  49.98000336
H    15.39000034  30.81000137  49.33000183
H     4.73000002  27.96999931  51.93000031
H     4.55999994  29.67000008  52.18999863
S    16.40999985  28.94000053  53.61999893
C    19.04000092  29.40000153  52.84000015
C    17.71000099  29.69000053  52.67000198
C    17.21999931  30.22000122  51.43000031
C    18.17000008  30.72000122  50.56000137
C    19.55999947  30.62000084  50.84000015
C    20.58000183  31.11000061  49.97000122
C    21.93000031  31.07000160  50.20999908
C    22.29999924  30.52000046  51.46999741
C    21.42000008  29.97999954  52.37999725
C    20.05000114  29.96000099  52.02000046
C    15.77000046  30.10000038  51.32999802
C    15.18000031  29.41999817  52.43000031
C    13.85000038  28.98999977  52.48000336
C    23.74000168  30.68000031  51.90999985
H    23.92512321  30.40943718  52.94953156
H    19.31999969  28.78000069  53.68999863
H    17.69000053  31.14000130  49.68000031
H    20.29000092  31.67000008  49.09000015
H    22.56000137  31.73000145  49.61999893
H    21.68999863  29.57999992  53.36000061
H    13.52000046  28.29000092  53.23999786
H    23.92999840  31.76000214  51.93999863
H    24.40000153  30.20999908  51.18000031
