96

S    15.17000008  34.00000000  57.09999847
C    17.86999893  33.93000031  56.39999771
C    16.56999969  33.59000015  56.10000229
C    16.27000046  32.95999908  54.85000229
C    17.34000015  32.52999878  54.09000015
C    18.65999985  32.99000168  54.31000137
C    19.71999931  32.69000244  53.40000153
C    21.02999878  32.97999954  53.74000168
C    21.35000038  33.52999878  55.00999832
C    20.34000015  33.88999939  55.86000061
C    18.96999931  33.61999893  55.56000137
C    14.82999992  32.85000229  54.65000153
C    14.15999985  33.45000076  55.75000000
C    12.77999973  33.59000015  55.72000122
C    22.79999924  33.80000305  55.34999847
H    23.10478020  33.30384445  56.27143097
H    18.12000084  34.41999817  57.34000397
H    17.20000076  31.75000000  53.34999847
H    19.40000153  32.36000061  52.42000198
H    21.73000145  32.76000214  52.95000076
H    20.39999962  34.27000046  56.88000107
H    12.35999966  33.98999786  56.63999939
H    23.50000000  33.67000198  54.52000046
H    22.77000046  34.86999893  55.61000061
S    11.73999977  32.07999802  52.18999863
C     9.02000046  32.02999878  52.83000183
C    10.29999924  32.34999847  53.18999863
C    10.59999943  32.88999939  54.48999786
C     9.56999969  33.08000183  55.38999939
C     8.23999977  32.68000031  55.11000061
C     7.13000011  32.79000092  55.97999954
C     5.86000013  32.40999985  55.63000107
C     5.64000034  31.78999901  54.36000061
C     6.65999985  31.77999878  53.43999863
C     7.97999954  32.16999817  53.79000092
C    12.02000046  33.15999985  54.61999893
C    12.76000023  32.70999908  53.48999786
C    14.11999893  32.42000198  53.52000427
C     4.21999979  31.42000008  54.01000214
H     3.68044853  32.20802689  53.48464966
H     8.73999977  31.56999969  51.88000107
H     9.77000046  33.51000214  56.37000275
H     7.28999996  33.22000122  56.97000122
H     5.00999975  32.62000275  56.26999664
H     6.61000013  31.50000000  52.38999939
H    14.55999947  32.13000107  52.57999802
H     3.65000010  31.01000023  54.85000229
H     4.35999966  30.53999901  53.36000061
S    12.22000027  30.07999802  49.50000000
C     9.61000061  29.47999954  50.14999771
C    10.93000031  29.36000061  50.48999786
C    11.42000008  28.81999969  51.72000122
C    10.50000000  28.31000137  52.62000275
C     9.13000011  28.32999992  52.27000427
C     8.10000038  27.81999969  53.11000061
C     6.75000000  27.85000038  52.84999847
C     6.28000021  28.39999962  51.63000107
C     7.25000000  29.02000046  50.87999725
C     8.65999985  28.97000122  51.07999802
C    12.86000061  29.03000069  51.86999893
C    13.43999958  29.61000061  50.70999908
C    14.78999996  29.93000031  50.66999817
C     4.85000038  28.22000122  51.19999695
H     4.34446239  29.02458763  50.66598129
H     9.38000011  30.03999901  49.23999786
H    10.67999935  27.88999939  53.61000061
H     8.47000027  27.53999901  54.09000015
H     6.19000006  27.32000160  53.61999893
H     6.89000034  29.33000183  49.89999771
H    15.11000061  30.45999908  49.78000259
H     4.77999973  27.37999916  50.48999786
H     4.32000017  27.98999977  52.12999725
S    16.18999863  28.64999962  54.15000153
C    18.88000107  29.10000038  53.50999832
C    17.54999924  29.26000214  53.18000031
C    17.10000038  29.77000046  51.91999817
C    18.09999847  30.22000122  51.06999969
C    19.45999908  29.92000198  51.31000137
C    20.46999931  30.29999924  50.38000107
C    21.80000114  30.20000076  50.72999954
C    22.20999908  29.65999985  51.97000122
C    21.28000069  29.13999939  52.83000183
C    19.89999962  29.34999847  52.56000137
C    15.67000008  29.61999893  51.72000122
C    15.03999901  29.07999992  52.87000275
C    13.68000031  28.78999901  52.97999954
C    23.67000198  29.53000069  52.34000397
H    23.91125107  30.37437820  52.98570251
H    19.04999924  28.55999947  54.43000031
H    17.82999992  30.63999939  50.10000229
H    20.19000053  30.62999916  49.38000107
H    22.49000168  30.52000046  49.94999695
H    21.57999992  28.81999969  53.82999802
H    13.34000015  28.31999969  53.89999771
H    24.34999847  29.54999924  51.47999573
H    23.64999962  28.61000061  52.94000244
