96

S    15.47000027  34.06999969  56.86999893
C    18.13999939  34.04999924  56.03000259
C    16.84000015  33.67000198  55.79999924
C    16.50000000  32.97999954  54.59000015
C    17.40999985  32.77000046  53.56999969
C    18.73999977  33.22999954  53.73000336
C    19.76000023  32.97999954  52.77000046
C    21.09000015  33.18000031  53.06999969
C    21.42999840  33.81999969  54.27999878
C    20.43000031  34.27000046  55.11000061
C    19.07999992  33.82999802  54.99000168
C    15.06000042  32.83000183  54.55999756
C    14.35999966  33.39999771  55.65999985
C    12.98999977  33.54000092  55.77000046
C    22.88000107  34.09000015  54.64000320
H    23.28731728  33.39684677  55.37602615
H    18.45999908  34.56999969  56.93000031
H    17.13999939  32.26000214  52.64999771
H    19.42000008  32.55000305  51.83000183
H    21.80999947  32.90999985  52.29999924
H    20.69999886  34.75000000  56.04999924
H    12.51000023  34.01000214  56.62000275
H    23.47999954  34.20999908  53.73000336
H    22.89999962  35.13999939  54.95999908
S    11.68000031  32.15999985  52.32999802
C     8.97999954  32.18000031  53.09999847
C    10.26999950  32.59000015  53.31999969
C    10.70000076  33.09999847  54.59000015
C     9.72000027  33.34000015  55.52999878
C     8.34000015  33.11000061  55.27999878
C     7.37999964  33.22000122  56.31999969
C     6.06999969  32.83000183  56.18000031
C     5.69999981  32.33000183  54.91000366
C     6.58999968  32.15999985  53.87000275
C     7.96999979  32.47999954  54.03999710
C    12.15000057  33.09000015  54.73999786
C    12.82999992  32.62000275  53.60000229
C    14.19999981  32.38999939  53.54000092
C     4.28999996  31.78999901  54.77000427
H     3.81248760  32.18198776  53.87199020
H     8.64000034  31.68000031  52.18999863
H    10.00000000  33.54999924  56.56000137
H     7.82999992  33.65999985  57.21000290
H     5.36000013  32.70999908  57.00000000
H     6.30999994  31.70999908  52.93000031
H    14.65000057  31.97999954  52.63999939
H     3.81999993  32.00999832  55.72999954
H     4.32000017  30.69999886  54.61000061
S    15.57999992  34.18000031  51.17000198
C    18.26000023  34.22000122  50.45999908
C    17.00000000  33.74000168  50.19000244
C    16.63999939  33.25999832  48.88999939
C    17.67000008  33.13999939  47.97000122
C    18.98999977  33.56999969  48.26000214
C    20.03000069  33.44000244  47.29000092
C    21.32999802  33.79000092  47.56000137
C    21.61999893  34.29999924  48.86000061
C    20.65999985  34.57999802  49.79999924
C    19.31999969  34.17000198  49.52000046
C    15.19999981  33.31000137  48.67000198
C    14.50000000  33.74000168  49.82999802
C    13.12000084  33.88000107  49.94999695
C    22.96999931  34.93999863  49.06000137
H    23.55369568  34.35630035  49.77182770
H    18.38000107  34.79000092  51.38000107
H    17.42000008  32.77000046  46.97999954
H    19.67000008  33.09999847  46.31999969
H    21.90000153  33.95999908  46.65000153
H    20.86999893  35.09999847  50.72000122
H    12.64000034  34.06999969  50.90000153
H    23.42000008  35.04000092  48.06000137
H    22.86999893  35.97999954  49.38000107
S    11.92999935  32.69000244  46.36000061
C     9.22000027  32.45999908  47.16999817
C    10.52999973  32.79999924  47.43999863
C    10.93999958  33.36000061  48.69999695
C     9.96000004  33.46999741  49.65999985
C     8.61999989  33.06999969  49.43000031
C     7.62000036  33.25999832  50.44000244
C     6.32999992  32.92000198  50.12000275
C     5.95000029  32.31999969  48.88999939
C     6.86999989  32.16999817  47.87000275
C     8.22000027  32.52000046  48.16999817
C    12.38000011  33.59000015  48.79000092
C    13.07000065  33.15999985  47.63999939
C    14.45000076  33.06000137  47.51999664
C     4.48999977  32.11000061  48.54999924
H     4.14763594  32.70200348  47.70122528
H     8.84000015  32.16999817  46.19999695
H    10.29999924  33.81999969  50.63000107
H     7.95000029  33.65000153  51.38999939
H     5.51999998  33.06999969  50.81999969
H     6.51000023  31.90999985  46.88000107
H    15.01999950  32.65000153  46.69000244
H     3.84000015  32.29000092  49.41999817
H     4.26999998  31.07999992  48.25000000
