96

S    15.65000057  33.68999863  57.25000000
C    18.38000107  33.82999802  56.51000214
C    17.06999969  33.54999924  56.18999863
C    16.67000008  33.18000031  54.86999893
C    17.68000031  32.95999908  53.94000244
C    19.04000092  33.13000107  54.27999878
C    20.10000038  32.85000229  53.36999893
C    21.38999939  33.20999908  53.67000198
C    21.77999878  33.82999802  54.88999939
C    20.78000069  33.98999786  55.81999969
C    19.40999985  33.68000031  55.54999924
C    15.24000072  32.95999908  54.71000290
C    14.56999969  33.45999908  55.86000061
C    13.17999935  33.52000046  55.89000320
C    23.19999886  34.25000000  55.20999908
H    23.66437149  33.58559036  55.93870926
H    18.57999992  34.11999893  57.54000092
H    17.54999924  32.43999863  53.00000000
H    19.84000015  32.37999725  52.43000031
H    22.11000061  32.97999954  52.88999939
H    21.02999878  34.29000092  56.83000183
H    12.63000011  33.82999802  56.77999878
H    23.72999954  34.13999939  54.25000000
H    23.05000114  35.30999756  55.44000244
S    11.96000004  31.94000053  52.45999908
C     9.28999996  31.81999969  53.25000000
C    10.53999996  32.36999893  53.41999817
C    10.95999908  32.95000076  54.65999985
C     9.92999935  33.23999786  55.54999924
C     8.60999966  32.78000259  55.37000275
C     7.53000021  32.97000122  56.27999878
C     6.23000050  32.56999969  56.04000092
C     5.88000011  31.90999985  54.84000397
C     6.90000010  31.68999863  53.94000244
C     8.26000023  32.00000000  54.20999908
C    12.39999962  33.08000183  54.81999969
C    13.07000065  32.54000092  53.69999695
C    14.46000004  32.47999954  53.64999771
C     4.46000004  31.47999954  54.52999878
H     3.93005180  32.04575729  53.76372528
H     9.06000042  31.35000038  52.29999924
H    10.11000061  33.74000168  56.50000000
H     7.77999973  33.41999817  57.23999786
H     5.56999969  32.72000122  56.88999939
H     6.80000019  31.31000137  52.93000031
H    14.85999966  32.29999924  52.65999603
H     3.76999998  31.51000023  55.38000107
H     4.46000004  30.40999985  54.27000046
S    16.01000023  34.31000137  51.17000198
C    18.75000000  34.24000168  50.54999924
C    17.43999863  34.09000015  50.13999939
C    17.05999947  33.54000092  48.87000275
C    18.05999947  33.18999863  47.98999786
C    19.40999985  33.41999817  48.33000183
C    20.48000145  33.09999847  47.45999908
C    21.81999969  33.22000122  47.74000168
C    22.07999992  33.97999954  48.92000198
C    21.11000061  34.47999954  49.75999832
C    19.76000023  34.05999756  49.56999969
C    15.62999916  33.27000046  48.76999664
C    14.91000080  33.77999878  49.87999725
C    13.53999996  33.72999954  50.05000305
C    23.50000000  34.36999893  49.26000214
H    23.90466309  33.80205154  50.09772491
H    18.90999985  34.61999893  51.56000137
H    17.87999916  32.88999939  46.95999908
H    20.17999840  32.69000244  46.50000000
H    22.63000107  32.93000031  47.08000183
H    21.42999840  35.09999847  50.58000183
H    13.12999916  34.17000198  50.94999695
H    24.17000008  34.38999939  48.39000320
H    23.50000000  35.38999939  49.66999817
S    12.30999947  32.33000183  46.56000137
C     9.61999989  32.29000092  47.28000259
C    10.90999985  32.63000107  47.61000061
C    11.32999992  33.20000076  48.86000061
C    10.29999924  33.43000031  49.75999832
C     8.94999981  33.04000092  49.56999969
C     7.92999983  33.13999939  50.56000137
C     6.63999987  32.77000046  50.26000214
C     6.34999990  32.13000107  49.02999878
C     7.32999992  31.96000099  48.06999969
C     8.64999962  32.43999863  48.29999924
C    12.77999973  33.27000046  48.96999741
C    13.47000027  32.81999969  47.81000137
C    14.85000038  32.70999908  47.74000168
C     4.94999981  31.61999893  48.79000092
H     4.38724995  32.23973846  48.09190750
H     9.39000034  31.68000031  46.40999603
H    10.57999992  33.82999802  50.72999954
H     8.14000034  33.54999924  51.55000305
H     5.75999975  32.90000153  50.87999725
H     7.17000008  31.42000008  47.14000320
H    15.21999931  32.36000061  46.79000092
H     4.42999983  31.54999924  49.73999786
H     4.99000025  30.56999969  48.46000290
