96

S    15.13000011  33.84999847  57.15000153
C    17.80999947  33.95999908  56.44000244
C    16.53000069  33.54999924  56.10000229
C    16.17000008  32.90999985  54.87999725
C    17.13000107  32.83000183  53.88000107
C    18.45000076  33.20000076  54.23999786
C    19.43000031  33.02999878  53.22000122
C    20.75000000  33.29000092  53.50999832
C    21.15999985  33.88000107  54.72999954
C    20.22999954  34.05999756  55.72000122
C    18.85000038  33.77999878  55.48999786
C    14.73000050  32.81999969  54.72999954
C    14.02999973  33.34000015  55.84999847
C    12.64999962  33.47999954  55.93000031
C    22.62000084  34.17000198  55.00999832
H    22.99057579  33.53574371  55.81528854
H    18.17000008  34.41999817  57.35000229
H    16.77000046  32.72999954  52.87000275
H    19.10000038  32.66999817  52.23999786
H    21.54999924  33.09999847  52.80000305
H    20.55999947  34.56000137  56.63000107
H    12.15999985  33.77999878  56.86000061
H    23.19999886  34.06999969  54.08000183
H    22.78000069  35.16999817  55.41999817
S    11.59000015  32.09999847  52.35000229
C     8.94999981  32.06000137  52.95999908
C    10.19999981  32.43000031  53.40000153
C    10.50000000  33.06999969  54.65000153
C     9.47000027  33.34000015  55.54000092
C     8.15999985  32.99000168  55.13000107
C     7.03999996  33.15999985  55.98999786
C     5.78000021  32.73999786  55.61000061
C     5.52999973  32.07999802  54.38000107
C     6.58999968  32.02999878  53.50000000
C     7.90000010  32.45999908  53.81999969
C    11.94000053  33.18000031  54.75999832
C    12.64999962  32.83000183  53.57999802
C    14.01999950  32.59999847  53.54999924
C     4.21000004  31.47000122  53.99000168
H     3.62671375  32.10308075  53.32135391
H     8.69999981  31.40999985  52.11999893
H     9.63000011  33.87000275  56.46999741
H     7.13000011  33.55999756  57.00000000
H     4.92999983  32.90000153  56.27999878
H     6.42000008  31.53000069  52.54000092
H    14.55999947  32.50000000  52.61000061
H     3.55999994  31.27000046  54.85000229
H     4.38000011  30.55000114  53.40999985
S    12.10999966  30.36999893  49.38999939
C     9.47000027  29.80999947  50.04000092
C    10.80999947  29.61000061  50.31999969
C    11.28000069  28.90000153  51.46999741
C    10.34999943  28.36999893  52.34000397
C     8.97000027  28.57999992  52.09000015
C     7.95000029  28.05999947  52.93000031
C     6.58999968  28.15000153  52.70999908
C     6.17999983  28.65999985  51.45000076
C     7.11000013  29.17000008  50.58000183
C     8.50000000  29.23999977  50.90000153
C    12.71999931  29.04000092  51.62000275
C    13.30000019  29.84999847  50.59999847
C    14.63999939  30.20999908  50.61999893
C     4.71000004  28.97000122  51.29000092
H     4.17716360  28.50820923  50.45877838
H     9.19999981  30.26000023  49.09000015
H    10.71000004  27.90999985  53.25000000
H     8.23000050  27.62000084  53.88000107
H     5.88000011  27.72000122  53.40000153
H     6.83000040  29.68000031  49.65000153
H    15.01999950  30.69000053  49.72000122
H     4.17000008  28.67000198  52.18999863
H     4.51000023  30.03000069  51.05999756
S    16.02000046  28.40999985  53.89999771
C    18.68000031  29.13999939  53.27000046
C    17.32999992  29.15999985  52.97999954
C    16.86000061  29.82000160  51.79999924
C    17.75000000  30.32999992  50.87999725
C    19.13999939  30.34000015  51.13999939
C    20.06000137  30.93000031  50.21999741
C    21.40000153  30.81000137  50.50000000
C    21.88999939  30.22000122  51.69000244
C    21.00000000  29.61999893  52.55000305
C    19.60000038  29.65999985  52.31999969
C    15.39999962  29.82000160  51.72999954
C    14.81999969  29.02000046  52.74000168
C    13.47000027  28.68000031  52.75000000
C    23.36999893  29.93000031  51.77999878
H    23.74014091  29.95135498  52.80500412
H    19.01000023  28.59000015  54.13999939
H    17.35999870  30.72000122  49.93999863
H    19.61000061  31.28999901  49.29999924
H    22.11999893  30.90999985  49.68999863
H    21.22999954  28.88999939  53.31999969
H    13.02000046  28.12999916  53.56999969
H    24.02000046  30.69000053  51.31999969
H    23.64000130  28.94000053  51.38999939
