96

S    15.67000008  33.45000076  57.09000015
C    18.38999939  33.75000000  56.27999878
C    17.11000061  33.29999924  56.05999756
C    16.72999954  32.95999908  54.72000122
C    17.75000000  32.85000229  53.79000092
C    19.11999893  33.04000092  54.08000183
C    20.20999908  32.90999985  53.16999817
C    21.50000000  33.25000000  53.47000122
C    21.77000046  33.68000031  54.79999924
C    20.79000092  33.95999908  55.72999954
C    19.45999908  33.61999893  55.35999680
C    15.29999924  32.97999954  54.48999786
C    14.59000015  33.18999863  55.70999908
C    13.20000076  33.20000076  55.80999756
C    23.22000122  33.94000244  55.15999603
H    23.60400772  33.34976578  55.99201584
H    18.51000023  34.31999969  57.19999695
H    17.39999962  32.72999954  52.77000046
H    19.97999954  32.66999817  52.12999725
H    22.34999847  33.29999924  52.80000305
H    20.98999977  34.29999924  56.73999786
H    12.74000072  33.31999969  56.79000092
H    23.92000008  33.81999969  54.33000183
H    23.38000107  34.97000122  55.51000214
S    12.05999947  32.21999741  52.16999817
C     9.34000015  31.94000053  52.91999817
C    10.62999916  32.30999756  53.22000122
C    11.00999928  32.72000122  54.54000092
C    10.03000069  32.83000183  55.51000214
C     8.69999981  32.45999908  55.21999741
C     7.65999985  32.70000076  56.17000198
C     6.37000036  32.29000092  55.90999985
C     5.98999977  31.81999969  54.62999725
C     6.96000004  31.73000145  53.66000366
C     8.34000015  31.96000099  53.92000198
C    12.44999981  32.93999863  54.66999817
C    13.15000057  32.80999756  53.43999863
C    14.52999973  32.68000031  53.36000061
C     4.51000023  31.65999985  54.36999893
H     4.10545683  32.27745819  53.56800842
H     9.04999924  31.77999878  51.88999939
H    10.36000061  33.23999786  56.45999908
H     7.92000008  33.18999863  57.09999847
H     5.59999990  32.52999878  56.63999939
H     6.71999979  31.51000023  52.62000275
H    15.03999901  32.37999725  52.44999695
H     4.01999998  31.80999947  55.34000015
H     4.41000032  30.62999916  54.00000000
S    16.17000008  34.50000000  51.18000031
C    18.86000061  34.61000061  50.40999985
C    17.57999992  34.20000076  50.13999939
C    17.17000008  33.56999969  48.92000198
C    18.12000084  33.46999741  47.93000031
C    19.48999977  33.75999832  48.13999939
C    20.58000183  33.56999969  47.23999786
C    21.90999985  33.77999878  47.50999832
C    22.26000023  34.34000015  48.76999664
C    21.21999931  34.52999878  49.65999985
C    19.82999992  34.34000015  49.40999985
C    15.72999954  33.36999893  48.85000229
C    15.03000069  33.84000015  49.99000168
C    13.63999939  33.88999939  50.02999878
C    23.64000130  34.83000183  49.12000275
H    24.00331879  34.11048889  49.85375977
H    19.19000053  34.95999908  51.38999939
H    17.88999939  32.97999954  46.98999786
H    20.27000046  33.32999802  46.22000122
H    22.65000153  33.70999908  46.72000122
H    21.42000008  35.05000305  50.59000015
H    13.03999996  34.36000061  50.80999756
H    24.17000008  34.87999725  48.15999985
H    23.45000076  35.84999847  49.47999954
S    12.57999992  32.77000046  46.38999939
C     9.89000034  32.68000031  46.95999908
C    11.14999962  32.95000076  47.43000031
C    11.44999981  33.40999985  48.75000000
C    10.34999943  33.54999924  49.56999969
C     9.04999924  33.20000076  49.13000107
C     7.90999985  33.22000122  49.99000168
C     6.63999987  32.92000198  49.58000183
C     6.39999962  32.36000061  48.29999924
C     7.44000006  32.34000015  47.39999771
C     8.75000000  32.72999954  47.80000305
C    12.89999962  33.45000076  48.92000198
C    13.63999939  33.04999924  47.77999878
C    15.01999950  32.92000198  47.72999573
C     4.99000025  32.02000046  47.88999939
H     4.56910610  32.90459061  47.41203690
H     9.76000023  32.36999893  45.93000031
H    10.48999977  33.82999802  50.61000061
H     8.18000031  33.56999969  50.98999786
H     5.82999992  32.90999985  50.31000137
H     7.23000002  32.11000061  46.36000061
H    15.57000065  32.65000153  46.83000183
H     4.46999979  31.60000038  48.75999832
H     5.09999990  31.25000000  47.11000061
