96

S    14.98999977  33.09999847  57.08000183
C    17.71999931  33.08000183  56.47999573
C    16.43000031  32.81999969  56.07999802
C    16.04999924  32.47999954  54.73999786
C    17.10000038  32.38999939  53.85000229
C    18.42000008  32.79000092  54.15000153
C    19.44000053  32.93999863  53.16999817
C    20.73999786  33.22000122  53.53000259
C    21.04999924  33.43000031  54.89999771
C    20.09000015  33.39999771  55.89000320
C    18.77000046  33.00000000  55.52999878
C    14.61999989  32.63000107  54.47999954
C    13.92000008  32.95000076  55.66999817
C    12.53999901  33.04999924  55.77999878
C    22.49000168  33.75999832  55.24000168
H    22.95078468  33.07945633  55.95598984
H    17.87999916  33.72999954  57.32999802
H    16.86000061  31.94999886  52.88000107
H    19.20999908  32.70999908  52.14000320
H    21.52000046  33.34000015  52.77999878
H    20.29999924  33.70999908  56.90999985
H    12.06999969  33.15000153  56.76000214
H    23.09999847  33.84000015  54.34000015
H    22.56000137  34.79000092  55.59999847
S    11.25000000  32.19000244  52.15000153
C     8.60000038  31.78999901  53.04999924
C     9.89999962  32.16999817  53.29000092
C    10.27999973  32.63000107  54.59999847
C     9.32999992  32.65000153  55.59999847
C     7.96999979  32.33000183  55.38000107
C     7.02000046  32.40000153  56.44000244
C     5.73000002  32.04000092  56.14999771
C     5.31000042  31.67000008  54.85000229
C     6.24000025  31.56999969  53.83999634
C     7.62000036  31.84000015  54.06999969
C    11.72000027  32.83000183  54.65999985
C    12.39999962  32.55000305  53.46000290
C    13.78999901  32.44999695  53.36999893
C     3.86000013  31.34000015  54.55999756
H     3.51082468  31.79606628  53.63361740
H     8.26000023  31.44000053  52.08000183
H     9.72999954  32.88000107  56.59000015
H     7.30999994  32.70000076  57.43999863
H     5.05999994  32.09999847  57.01000214
H     5.96000004  31.21999931  52.84999847
H    14.27000046  32.09000015  52.47000122
H     3.25000000  31.59000015  55.43000031
H     3.74000025  30.25000000  54.48999786
S    11.76000023  30.42000008  49.34000015
C     9.10000038  29.77000046  49.93000031
C    10.43000031  29.61000061  50.20999908
C    10.95999908  28.81999969  51.26999664
C    10.10000038  28.09999847  52.09000015
C     8.73000050  28.28000069  51.79999924
C     7.79999971  27.70999908  52.71999741
C     6.44999981  27.86999893  52.54000092
C     5.88999987  28.61999893  51.46999741
C     6.76999998  29.27999878  50.63000107
C     8.17000008  29.06999969  50.73999786
C    12.39999962  29.01000023  51.40999603
C    13.02999973  29.80999947  50.41999817
C    14.37999916  30.10999870  50.44000244
C     4.41000032  28.92000008  51.38999939
H     3.96079350  28.56348610  50.46306229
H     8.71999931  30.48999977  49.20000076
H    10.48999977  27.70999908  53.02000046
H     8.19999981  27.04000092  53.47999954
H     5.78999996  27.55000114  53.34000015
H     6.38999987  29.93999863  49.85000229
H    14.85999966  30.61000061  49.59999847
H     3.86000013  28.64000130  52.29999924
H     4.28000021  30.00999832  51.37000275
S    15.57999992  28.51000023  53.86000061
C    18.27999878  28.85000038  53.27000046
C    16.97000122  29.10000038  52.94000244
C    16.59000015  29.72999954  51.70000076
C    17.56999969  30.32999992  50.93000031
C    18.93000031  30.12000084  51.25000000
C    19.95000076  30.69000053  50.45000076
C    21.27000046  30.62000084  50.84000015
C    21.63999939  29.79999924  51.93999863
C    20.66999817  29.21999931  52.72999573
C    19.29000092  29.40000153  52.44999695
C    15.14999962  29.68000031  51.52000046
C    14.48999977  28.90999985  52.50999832
C    13.19000053  28.42000008  52.39999771
C    23.05999947  29.28999901  51.91999817
H    23.49308014  29.45329094  52.90684891
H    18.51000023  28.29000092  54.16999817
H    17.20000076  30.75000000  50.00000000
H    19.70000076  31.15999985  49.50000000
H    22.01000023  31.04000092  50.17000198
H    20.84000015  28.47999954  53.52000427
H    12.79000092  27.77000046  53.16999817
H    23.64000130  29.82999992  51.16000366
H    23.13999939  28.23999786  51.63999939
