96

S    15.24000072  33.69999695  57.16999817
C    17.97000122  33.88000107  56.47999573
C    16.68000031  33.58000183  56.12999725
C    16.28000069  33.15000153  54.82999802
C    17.29999924  33.06000137  53.89999771
C    18.67000008  33.29999924  54.19000244
C    19.70000076  33.27999878  53.20999908
C    20.97999954  33.62999725  53.55999756
C    21.35000038  33.95000076  54.89999771
C    20.35000038  34.11999893  55.81999969
C    19.01000023  33.74000168  55.52000046
C    14.84000015  33.00000000  54.68000031
C    14.11999893  33.22999954  55.87999725
C    12.75000000  33.45999908  55.90999985
C    22.77000046  34.36999893  55.20999908
H    23.11251831  33.87049484  56.11624146
H    18.26000023  34.33000183  57.42000198
H    16.97000122  32.73999786  52.91999817
H    19.45000076  32.99000168  52.18999863
H    21.73999977  33.67000198  52.78999710
H    20.55999947  34.45000076  56.84000015
H    12.25000000  33.39999771  56.86999893
H    23.50000000  34.09000015  54.43999863
H    22.86000061  35.43999863  55.43000031
S    11.63000011  32.97999954  52.12999725
C     8.93000031  32.50999832  52.88000107
C    10.21000004  32.92000198  53.18999863
C    10.59000015  33.29000092  54.52000046
C     9.61000061  33.40999985  55.50000000
C     8.25000000  33.22000122  55.14999771
C     7.23000002  33.09000015  56.12999725
C     5.95000029  32.65000153  55.86999893
C     5.65999985  32.20999908  54.54999924
C     6.61000013  32.20000076  53.55999756
C     7.92999983  32.62000275  53.88000107
C    12.02999973  33.38999939  54.71000290
C    12.72999954  33.16999817  53.50000000
C    14.07999992  32.83000183  53.50999832
C     4.26999998  31.63999939  54.36000061
H     3.83692098  32.10147858  53.47254181
H     8.67000008  32.20000076  51.86999893
H     9.89999962  33.61000061  56.52000046
H     7.51999950  33.31999969  57.15000153
H     5.12000036  32.65000153  56.56999969
H     6.35999966  31.84000015  52.56999969
H    14.60000038  32.59000015  52.58999634
H     3.67000008  31.81999969  55.26000214
H     4.28999996  30.53999901  54.45999908
S    15.98000050  34.31000137  51.00999832
C    18.68000031  34.59000015  50.28999710
C    17.42000008  34.11000061  50.00000000
C    17.00000000  33.58000183  48.73000336
C    17.98999977  33.43000031  47.77999878
C    19.31999969  33.81999969  48.06000137
C    20.36000061  33.45999908  47.15999985
C    21.63999939  33.90000153  47.38999939
C    21.98999786  34.59000015  48.57999802
C    21.00000000  34.94999695  49.47000122
C    19.65999985  34.52999878  49.26000214
C    15.55999947  33.48999786  48.53000259
C    14.86999989  33.95999908  49.66999817
C    13.50000000  34.17000198  49.58000183
C    23.45999908  34.76000214  48.90999603
H    23.75171089  34.11965942  49.74244308
H    18.92000008  34.97000122  51.26999664
H    17.76000023  32.84000015  46.88999939
H    20.10000038  32.93000031  46.25000000
H    22.40999985  33.67000198  46.65999985
H    21.22999954  35.40000153  50.43000031
H    13.07000065  34.68000031  50.45000076
H    24.01000023  34.63999939  47.97000122
H    23.50000000  35.81999969  49.20000076
S    12.42000008  32.77000046  46.03000259
C     9.72999954  32.80999756  46.69000244
C    11.00999928  33.18000031  47.02000046
C    11.32999992  33.77000046  48.29000092
C    10.31999969  33.95000076  49.22000122
C     9.01000023  33.50000000  48.93000031
C     7.94000053  33.54000092  49.86000061
C     6.67000008  33.09999847  49.54000092
C     6.32000017  32.76000214  48.20000076
C     7.30999994  32.83000183  47.25000000
C     8.67000008  33.06999969  47.58999634
C    12.76999950  33.93000031  48.40999985
C    13.48000050  33.36999893  47.31999969
C    14.86999989  33.29000092  47.32999802
C     4.94000006  32.20999908  47.93000031
H     4.51292276  32.67266846  47.04025650
H     9.61999989  32.31999969  45.72000122
H    10.53999996  34.38999939  50.18000031
H     8.07999992  33.98999786  50.84000015
H     5.96000004  33.29000092  50.34000015
H     7.18999958  32.45999908  46.24000168
H    15.44999981  33.02999878  46.45000076
H     4.39000034  32.43999863  48.85000229
H     4.98000002  31.11999893  47.85999680
