96

S    15.39999962  33.97000122  56.95000076
C    18.12000084  33.86000061  56.42000198
C    16.84000015  33.69999695  55.93999863
C    16.46999931  33.09999847  54.69999695
C    17.48999977  32.73999786  53.83999634
C    18.79999924  33.11999893  54.20000076
C    19.89999962  33.01000214  53.29000092
C    21.17000198  33.44000244  53.60000229
C    21.51000023  33.87000275  54.91000366
C    20.51000214  33.94000244  55.84999847
C    19.15999985  33.65000153  55.48999786
C    15.03000069  32.93000031  54.54000092
C    14.32000065  33.39999771  55.66999817
C    12.94000053  33.52999878  55.70000076
C    22.90999985  34.33000183  55.24000168
H    23.33030891  33.76721191  56.07349396
H    18.29000092  34.22999954  57.43000031
H    17.28000069  32.40999985  52.83000183
H    19.70000076  32.59000015  52.30999756
H    21.90999985  33.50000000  52.80000305
H    20.81999969  34.38000107  56.79000092
H    12.32999992  33.82999802  56.53999710
H    23.54000092  34.01000214  54.40000153
H    22.98000145  35.40000153  55.47999954
S    11.77999973  32.27000046  52.11999893
C     9.09000015  32.20999908  52.91999817
C    10.39999962  32.52999878  53.20000076
C    10.77999973  33.13000107  54.43999863
C     9.81000042  33.40999985  55.38000107
C     8.46000004  33.08000183  55.11000061
C     7.40000010  33.36999893  56.02000427
C     6.09000015  33.00000000  55.80999756
C     5.75999975  32.26000214  54.64000320
C     6.72999954  32.02000046  53.69999695
C     8.07999992  32.43999863  53.88000107
C    12.23000050  33.23999786  54.52000046
C    12.93000031  32.72999954  53.40000153
C    14.29999924  32.56000137  53.40000153
C     4.32000017  31.86000061  54.40999985
H     3.84916067  32.45211792  53.62526703
H     8.82000065  31.63999939  52.04000092
H     9.94000053  33.90000153  56.33999634
H     7.64999962  33.65999985  57.04000092
H     5.38999987  33.06000137  56.63000107
H     6.47000027  31.52000046  52.77000046
H    14.89999962  32.27999878  52.52999878
H     3.72000003  32.09000015  55.30000305
H     4.28000021  30.79000092  54.15000153
S    12.31999969  30.55000114  49.40000153
C     9.64999962  29.56999969  49.82999802
C    11.00999928  29.54999924  50.06000137
C    11.50000000  28.90000153  51.24000168
C    10.60999966  28.34000015  52.14000320
C     9.21000004  28.48999977  52.00000000
C     8.32999992  28.05000114  53.02999878
C     7.00999975  28.42000008  52.97999954
C     6.48000002  29.04000092  51.81000137
C     7.31999969  29.37999916  50.77999878
C     8.71999931  29.11999893  50.79999924
C    12.88000011  29.20000076  51.56999969
C    13.50999928  30.03000069  50.61000061
C    14.85999966  30.35000038  50.68000031
C     5.01999950  29.40999985  51.70999908
H     4.57164526  28.75525856  50.96274185
H     9.28999996  30.22999954  49.03999710
H    10.98999977  28.12000084  53.13000107
H     8.85000038  27.57999802  53.86000061
H     6.35999966  28.40999985  53.83999634
H     6.94000006  29.86999893  49.87999725
H    15.32999992  30.88000107  49.85000229
H     4.53000021  29.23999977  52.68000031
H     4.84000015  30.46999931  51.46999741
S    15.98999977  28.67000198  54.08000183
C    18.76000023  28.97999954  53.54000092
C    17.43999863  29.23999977  53.23999786
C    17.02000046  29.97999954  52.09000015
C    18.06999969  30.45000076  51.31999969
C    19.45000076  30.20999908  51.52000046
C    20.50000000  30.53999901  50.61000061
C    21.80999947  30.29999924  50.93999863
C    22.13999939  29.64999962  52.15000153
C    21.15999985  29.18000031  53.00000000
C    19.79999924  29.47000122  52.70999908
C    15.59999943  29.94999886  51.79999924
C    14.88999939  29.27000046  52.81999969
C    13.55999947  28.88999939  52.75000000
C    23.59000015  29.69000053  52.58999634
H    23.66813469  30.50687599  53.30743027
H    18.93000031  28.45999908  54.47000122
H    17.89999962  30.95000076  50.37000275
H    20.20999908  31.21000099  49.79999924
H    22.63000107  30.63999939  50.31000137
H    21.32999802  28.81999969  54.02000046
H    13.12000084  28.35000038  53.59000397
H    24.17000008  30.03999901  51.72999954
H    23.92999840  28.72999954  52.98999786
