96

S    15.52999973  33.84999847  57.11999893
C    18.18000031  34.05999756  56.25999832
C    16.93000031  33.52999878  56.06999969
C    16.53000069  32.92000198  54.84000397
C    17.47999954  32.81999969  53.83999634
C    18.81000137  33.25000000  54.00000000
C    19.84000015  32.95000076  53.06000137
C    21.14000130  33.31999969  53.29000092
C    21.54000092  33.90999985  54.52000046
C    20.52000046  34.25000000  55.38999939
C    19.13999939  33.95000076  55.21999741
C    15.07999992  32.80999756  54.72999954
C    14.39000034  33.34999847  55.84999847
C    13.02000046  33.47999954  55.73999786
C    23.00000000  34.15999985  54.79000092
H    23.45563698  33.64741135  55.63719940
H    18.51000023  34.41999817  57.22999954
H    17.26000023  32.27999878  52.91999817
H    19.62000084  32.50999832  52.08000183
H    21.86000061  33.23999786  52.48000336
H    20.85000038  34.71999741  56.31000137
H    12.56000042  34.11000061  56.50000000
H    23.67000198  33.97000122  53.94000244
H    23.02000046  35.25000000  54.88999939
S    11.92000008  32.00000000  52.29000092
C     9.18000031  32.11000061  52.90000153
C    10.47000027  32.47000122  53.20000076
C    10.80999947  33.08000183  54.45000076
C     9.81999969  33.44000244  55.34000015
C     8.51000023  32.99000168  55.07999802
C     7.55000019  33.04000092  56.12999725
C     6.28999996  32.55000305  55.87999725
C     5.92000008  31.87999916  54.68999863
C     6.85999966  31.77000046  53.68999863
C     8.14000034  32.36999893  53.82999802
C    12.25999928  33.11000061  54.61999893
C    13.02000046  32.52000046  53.56999969
C    14.39000034  32.30999756  53.61999893
C     4.48000002  31.45999908  54.55999756
H     3.91343212  31.87076187  53.72430801
H     8.93999958  31.38000107  52.12999725
H    10.10000038  33.77000046  56.33999634
H     7.85000038  33.45999908  57.09000015
H     5.46999979  32.72000122  56.56999969
H     6.57999992  31.15999985  52.84000015
H    14.98000050  32.06999969  52.74000168
H     3.96000004  31.57999992  55.52000046
H     4.48999977  30.36000061  54.45999908
S    15.75000000  34.45999908  51.25999832
C    18.40999985  34.76000214  50.54000092
C    17.20999908  34.11999893  50.31000137
C    16.82999992  33.48999786  49.08000183
C    17.88999939  33.31999969  48.20000076
C    19.19999886  33.80000305  48.43000031
C    20.27000046  33.54999924  47.54000092
C    21.57999992  33.86000061  47.85999680
C    21.84000015  34.59000015  49.05000305
C    20.82999992  34.88999939  49.93000031
C    19.47000122  34.54999924  49.62999725
C    15.39000034  33.34000015  48.89999771
C    14.65999985  33.82999802  50.00999832
C    13.27999973  33.97000122  50.14999771
C    23.26999855  35.02000046  49.31000137
H    23.90337563  34.35815811  49.90067673
H    18.55999947  35.15000153  51.53999710
H    17.64000130  32.79999924  47.29000092
H    20.02000046  33.00000000  46.63999939
H    22.32999992  33.62999725  47.11000061
H    21.05999947  35.45999908  50.81999969
H    12.84999943  34.38999939  51.04999924
H    23.75999832  35.27000046  48.36999893
H    23.19000053  36.01000214  49.78000259
S    12.23999977  32.76000214  46.50000000
C     9.63000011  32.40999985  47.18000031
C    10.81999969  33.01000214  47.52999878
C    11.10000038  33.44000244  48.87000275
C    10.05000019  33.52000046  49.77000427
C     8.76999950  33.04000092  49.41999817
C     7.72000027  33.04000092  50.38999939
C     6.48000002  32.65999985  49.93999863
C     6.25999975  31.94999886  48.72000122
C     7.32999992  31.80999947  47.87000275
C     8.57999992  32.43999863  48.13000107
C    12.55000019  33.55999756  49.02999878
C    13.27000046  33.06999969  47.91999817
C    14.65000057  32.97000122  47.77000046
C     4.86000013  31.47000122  48.41999817
H     4.31903505  32.14620972  47.75802994
H     9.55999947  31.86000061  46.24000168
H    10.14999962  34.02000046  50.72999954
H     7.92999983  33.61999893  51.27999878
H     5.68000031  32.93000031  50.61000061
H     7.11000013  31.52000046  46.84999847
H    15.06999969  32.63000107  46.83000183
H     4.33999968  31.22999954  49.36000061
H     4.84000015  30.59999847  47.75000000
