96

S    15.29000092  34.20000076  57.15999985
C    18.04000092  34.09000015  56.58000183
C    16.75000000  33.77999878  56.25000000
C    16.40999985  33.08000183  55.04000092
C    17.42000008  32.72000122  54.16999817
C    18.77000046  32.95000076  54.52999878
C    19.77000046  32.79000092  53.53000259
C    21.07999992  33.18999863  53.68000031
C    21.38999939  33.81000137  54.91000366
C    20.43999863  34.11999893  55.86000061
C    19.09000015  33.68000031  55.72999954
C    14.96999931  33.06000137  54.78000259
C    14.22999954  33.61000061  55.86000061
C    12.84000015  33.68999863  55.90000153
C    22.77000046  34.27000046  55.31999969
H    23.11877251  33.67922592  56.16701889
H    18.20999908  34.54999924  57.56000137
H    17.20999908  32.29000092  53.18999863
H    19.45000076  32.33000183  52.60000229
H    21.87000084  33.06000137  52.94000244
H    20.72999954  34.59000015  56.79999924
H    12.23999977  34.04999924  56.72999954
H    23.48999977  34.20999908  54.48999786
H    22.72999954  35.36000061  55.45999908
S    11.84000015  32.38999939  52.28000259
C     9.11999989  32.36999893  52.84000015
C    10.39000034  32.70000076  53.26000214
C    10.71000004  33.27999878  54.52000046
C     9.67000008  33.56999969  55.38000107
C     8.31999969  33.38000107  54.98000336
C     7.23999977  33.65999985  55.86000061
C     5.92999983  33.43000031  55.52000046
C     5.69000006  32.77000046  54.27999878
C     6.71999979  32.40000153  53.43999863
C     8.06999969  32.73999786  53.72000122
C    12.15000057  33.29999924  54.75000000
C    12.89000034  32.81999969  53.63999939
C    14.26000023  32.56000137  53.68999863
C     4.30999994  32.31999969  53.88000107
H     3.88447189  32.95119858  53.09986496
H     8.97999954  31.96000099  51.84000015
H     9.94000053  33.86000061  56.39999771
H     7.53000021  34.00000000  56.84999847
H     5.07999992  33.52999878  56.18999863
H     6.57999992  32.02999878  52.43000031
H    14.75000000  32.02999878  52.88000107
H     3.63999987  32.26000214  54.75000000
H     4.40000010  31.32999802  53.41999817
S    15.86999989  34.15999985  51.09000397
C    18.56999969  34.13000107  50.38000107
C    17.27000046  33.84000015  50.04000092
C    16.86000061  33.45000076  48.73000336
C    17.81999969  33.34999847  47.74000168
C    19.17000008  33.63999939  48.06999969
C    20.17999840  33.59000015  47.05999756
C    21.44000053  34.03000259  47.36000061
C    21.87000084  34.40000153  48.66000366
C    20.95999908  34.22000122  49.68000031
C    19.59000015  33.97000122  49.40000153
C    15.42000008  33.51000214  48.57999802
C    14.73000050  33.97999954  49.73999786
C    13.35000038  34.13000107  49.75999832
C    23.28000069  34.84999847  49.00000000
H    23.74265671  34.13109970  49.67618942
H    18.88000107  34.48999786  51.36000061
H    17.63000107  33.13000107  46.69000244
H    19.90999985  33.20000076  46.09000397
H    22.23999977  34.05999756  46.62000275
H    21.28999901  34.43999863  50.68999863
H    12.84999943  34.56000137  50.61999893
H    23.90000153  34.93999863  48.11000061
H    23.11000061  35.84999847  49.41999817
S    12.05999947  32.62000275  46.40999603
C     9.36999989  32.65999985  47.05999756
C    10.65999985  32.95999908  47.44999695
C    11.07999992  33.48999786  48.70999908
C    10.05000019  33.67000198  49.61000061
C     8.69999981  33.43000031  49.27000046
C     7.57999992  33.77999878  50.07999802
C     6.26999950  33.55999756  49.72999954
C     5.96000004  32.79999924  48.56999969
C     6.98000002  32.55000305  47.67000198
C     8.31999969  32.93999863  47.97000122
C    12.53000069  33.65000153  48.73000336
C    13.23999977  33.06000137  47.64999771
C    14.63000107  33.04000092  47.52999878
C     4.55000019  32.29999924  48.41999817
H     4.00202274  32.79104614  47.61582565
H     9.17000008  32.09000015  46.16000366
H    10.21000004  33.95999908  50.63999939
H     7.77999973  34.22999954  51.04000092
H     5.49000025  33.69999695  50.47999954
H     6.65999985  32.13000107  46.72999954
H    15.03000069  32.76000214  46.56000137
H     4.00999975  32.29000092  49.36999893
H     4.67999983  31.24000168  48.13999939
