96

S    15.39999962  33.68999863  57.18000031
C    18.04999924  33.86000061  56.44000244
C    16.79999924  33.38999939  56.12999725
C    16.42000008  32.79999924  54.87999725
C    17.35000038  32.75000000  53.85000229
C    18.68999863  33.09999847  54.13999939
C    19.75000000  32.90999985  53.20999908
C    21.07000160  33.22000122  53.46000290
C    21.28999901  33.97999954  54.64000320
C    20.31999969  34.20999908  55.58000183
C    19.00000000  33.72999954  55.38999939
C    14.98000050  32.72999954  54.73999786
C    14.28999996  33.06999969  55.93999863
C    12.90999985  33.25999832  56.00999832
C    22.72000122  34.38000107  54.94999695
H    23.13966370  33.66159439  55.65417862
H    18.27999878  34.27000046  57.42000198
H    17.12000084  32.29000092  52.88999939
H    19.60000038  32.33000183  52.29999924
H    21.81999969  32.86000061  52.77000046
H    20.66999817  34.61000061  56.52999878
H    12.55000019  33.56999969  56.97999954
H    23.19000053  34.41999817  53.95999908
H    22.77000046  35.36999893  55.40000153
S    11.72999954  32.13999939  52.36999893
C     9.03999996  31.98999786  53.06999969
C    10.31999969  32.34999847  53.43000031
C    10.67000008  32.93000031  54.68999863
C     9.64999962  33.11999893  55.59999847
C     8.34000015  32.69000244  55.30000305
C     7.23999977  32.95999908  56.17000198
C     5.92000008  32.83000183  55.84000015
C     5.59999990  32.22999954  54.59999847
C     6.61999989  31.90999985  53.73000336
C     7.99000025  32.19000244  54.00000000
C    12.10999966  32.93999863  54.89999771
C    12.79999924  32.56999969  53.72000122
C    14.18000031  32.52999878  53.61000061
C     4.15999985  31.88999939  54.29000092
H     3.69160199  32.50743484  53.52352905
H     8.90999985  31.44000053  52.14000320
H     9.90999985  33.61999893  56.52999878
H     7.48000050  33.29000092  57.18000031
H     5.19000006  33.01000214  56.63000107
H     6.32000017  31.55999947  52.75000000
H    14.68999958  32.27999878  52.68000031
H     3.54999995  31.98999786  55.20000076
H     3.95000005  30.84000015  54.02000046
S    15.70000076  34.13000107  51.10000229
C    18.43000031  34.34000015  50.44000244
C    17.15999985  33.91999817  50.10000229
C    16.81999969  33.38000107  48.81999969
C    17.80999947  33.22999954  47.88000107
C    19.13999939  33.61000061  48.16999817
C    20.26000023  33.38999939  47.31999969
C    21.54000092  33.75000000  47.68000031
C    21.75000000  34.40000153  48.92000198
C    20.73999786  34.61999893  49.82999802
C    19.45000076  34.15000153  49.47000122
C    15.39000034  33.18999863  48.61999893
C    14.65999985  33.61000061  49.75999832
C    13.27000046  33.69999695  49.79999924
C    23.13999939  34.84000015  49.31999969
H    23.53152084  34.19932938  50.11016083
H    18.64999962  34.77000046  51.40999603
H    17.56000137  32.95000076  46.86000061
H    20.07999802  32.93000031  46.35000229
H    22.32000160  33.61999893  46.93999863
H    21.01000023  35.09999847  50.77000046
H    12.69000053  34.15000153  50.59999847
H    23.85999870  34.77999878  48.48999786
H    23.09999847  35.88000107  49.68000031
S    12.13999939  32.47999954  46.20999908
C     9.40999985  32.65999985  46.84000015
C    10.72000027  32.85000229  47.22000122
C    11.10999966  33.36999893  48.50000000
C    10.13000011  33.56999969  49.45000076
C     8.76999950  33.45999908  49.06000137
C     7.73000002  33.45000076  50.01999664
C     6.42000008  33.11999893  49.78000259
C     6.06999969  32.56999969  48.50999832
C     7.07000017  32.44999695  47.57999802
C     8.38999939  32.97000122  47.76000214
C    12.55000019  33.25999832  48.68000031
C    13.26000023  32.85000229  47.52999878
C    14.65000057  32.77000046  47.50000000
C     4.67000008  32.02000046  48.34999847
H     4.10776567  32.58935165  47.60984039
H     9.13000011  32.30999756  45.84999847
H    10.27999973  33.93000031  50.47000122
H     8.01999950  33.55999756  51.05999756
H     5.68000031  33.15999985  50.56999969
H     6.83000040  31.96000099  46.63999939
H    15.25000000  32.50999832  46.63999939
H     4.02999973  32.02000046  49.22999954
H     4.76999998  31.00000000  47.94000244
