96

S    15.34000015  33.84000015  57.04999924
C    18.06999969  33.54999924  56.46999741
C    16.76000023  33.31999969  56.11999893
C    16.38000107  32.70999908  54.87999725
C    17.38999939  32.38999939  53.99000168
C    18.75000000  32.69000244  54.25000000
C    19.78999901  32.57999802  53.27999878
C    21.05999947  33.02999878  53.60000229
C    21.40000153  33.51000214  54.88999939
C    20.39999962  33.74000168  55.79999924
C    19.06999969  33.31999969  55.50000000
C    14.93999958  32.69000244  54.69999695
C    14.23999977  33.22000122  55.80999756
C    12.84999943  33.27999878  55.89000320
C    22.80999947  34.01000214  55.12000275
H    23.31995392  33.44338226  55.89909744
H    18.27000046  33.98999786  57.43999863
H    17.19000053  32.06999969  52.97000122
H    19.57999992  32.20999908  52.28000259
H    21.78999901  33.11999893  52.80000305
H    20.59999847  34.25000000  56.73999786
H    12.41000080  33.62999725  56.81999969
H    23.31000137  33.77000046  54.18000031
H    22.78000069  35.09999847  55.24000168
S    11.73999977  31.84999847  52.37999725
C     9.00000000  31.86000061  53.00000000
C    10.27999973  32.23999786  53.29999924
C    10.65999985  32.72999954  54.59999847
C     9.64999962  32.93999863  55.52999878
C     8.30999947  32.65000153  55.20999908
C     7.23000002  32.86000061  56.11999893
C     5.92000008  32.52999878  55.84000015
C     5.66999960  31.81999969  54.64000320
C     6.63999987  31.61000061  53.68999863
C     7.99000025  31.94000053  53.99000168
C    12.09000015  32.84000015  54.79999924
C    12.82999992  32.29000092  53.72000122
C    14.21000004  32.15999985  53.61999893
C     4.26000023  31.38999939  54.31000137
H     3.75795484  31.95568657  53.52511215
H     8.85999966  31.35999870  52.04999924
H     9.94999981  33.27999878  56.52000046
H     7.50000000  33.31999969  57.05999756
H     5.19000006  32.88999939  56.56000137
H     6.46000004  31.28000069  52.67000198
H    14.61999989  31.86000061  52.65999603
H     3.67000008  31.54999924  55.21999741
H     4.15000010  30.31999969  54.13000107
S    15.78999996  33.82999802  51.18000031
C    18.48999977  34.11000061  50.37000275
C    17.20999908  33.65000153  50.13000107
C    16.77000046  33.18999863  48.85000229
C    17.68000031  33.09999847  47.81000137
C    19.02000046  33.51000214  48.04000092
C    20.07999802  33.27999878  47.12999725
C    21.38000107  33.68999863  47.31999969
C    21.68999863  34.45000076  48.47999954
C    20.71000099  34.64999771  49.43000031
C    19.42000008  34.05999756  49.31000137
C    15.32999992  33.13000107  48.66000366
C    14.65999985  33.52000046  49.84000397
C    13.28999996  33.72000122  49.91000366
C    23.12000084  34.77000046  48.85000229
H    23.58472252  34.00499344  49.47201538
H    18.86999893  34.52000046  51.30000305
H    17.51000023  32.49000168  46.93000031
H    19.92000008  32.76000214  46.18999863
H    22.20000076  33.31000137  46.70999908
H    20.95000076  35.23999786  50.31000137
H    12.90999985  34.10000229  50.86000061
H    23.74000168  35.05000305  47.98999786
H    23.13999939  35.68000031  49.47000122
S    12.05000019  32.73999786  46.33999634
C     9.40999985  32.49000168  47.12999725
C    10.67999935  32.90999985  47.44999695
C    11.03999996  33.25999832  48.79000092
C    10.05000019  33.36000061  49.75999832
C     8.71999931  33.04999924  49.40999985
C     7.62000036  33.15000153  50.31000137
C     6.34000015  32.93999863  49.85000229
C     6.01000023  32.33000183  48.61000061
C     7.05999947  32.19000244  47.72999573
C     8.36999989  32.61000061  48.09000015
C    12.48000050  33.44000244  48.80000305
C    13.20000076  33.02000046  47.65999603
C    14.56999969  32.81999969  47.51999664
C     4.67000008  31.65999985  48.40000153
H     4.04241514  32.23052979  47.71536255
H     9.28999996  32.06000137  46.13999939
H    10.29999924  33.74000168  50.75000000
H     7.82999992  33.31999969  51.37000275
H     5.52999973  32.95000076  50.56999969
H     6.90999985  31.76000214  46.73999786
H    15.01999950  32.50999832  46.58000183
H     4.19000006  31.68000031  49.38999939
H     4.76999998  30.62000084  48.08000183
