96

S    15.00000000  33.93000031  56.93999863
C    17.72999954  33.74000168  56.37000275
C    16.44000053  33.45000076  56.00999832
C    16.06999969  32.90000153  54.73999786
C    17.07999992  32.62000275  53.83999634
C    18.43000031  32.90000153  54.16999817
C    19.52000046  32.72000122  53.27000046
C    20.82999992  32.95999908  53.57999802
C    21.14999962  33.43000031  54.87999725
C    20.13999939  33.59999847  55.79000092
C    18.77000046  33.39999771  55.47000122
C    14.63000107  32.79000092  54.55999756
C    13.92000008  33.36999893  55.63999939
C    12.53000069  33.45999908  55.70999908
C    22.62000084  33.65999985  55.14999771
H    23.07447433  32.99959183  55.88851929
H    17.89999962  34.13999939  57.36999893
H    16.94000053  32.16999817  52.85999680
H    19.40999985  32.42000198  52.22999954
H    21.54999924  32.78000259  52.77999878
H    20.38999939  33.90000153  56.81000137
H    11.97000027  34.05999756  56.40999603
H    23.19000053  33.65000153  54.20999908
H    22.73999977  34.71999741  55.40000153
S    11.40999985  31.87000084  52.18999863
C     8.73000050  31.77999878  52.90000153
C    10.01000023  32.11000061  53.25000000
C    10.38000011  32.75000000  54.47999954
C     9.34000015  33.08000183  55.33000183
C     8.00000000  32.72999954  55.02999878
C     6.94000006  33.02000046  55.93999863
C     5.65999985  32.59999847  55.65000153
C     5.31000042  32.06000137  54.38999939
C     6.30000019  31.81999969  53.47000122
C     7.65999985  32.09999847  53.77999878
C    11.82000065  32.83000183  54.68000031
C    12.48000050  32.29000092  53.54999924
C    13.86999989  32.21999741  53.54000092
C     3.91000009  31.57999992  54.08000183
H     3.46214128  32.07762146  53.21982956
H     8.42000008  31.30000114  51.97000122
H     9.52000046  33.61000061  56.25999832
H     7.16000032  33.65000153  56.79000092
H     4.81999969  32.66999817  56.33999634
H     6.05999994  31.28000069  52.56000137
H    14.37000084  31.87999916  52.63999939
H     3.12000012  31.73000145  54.84000397
H     3.96000004  30.50000000  53.92000198
S    12.01000023  29.89999962  49.31999969
C     9.30999947  29.47999954  49.85000229
C    10.62000084  29.20999908  50.18000031
C    11.02000046  28.64000130  51.44000244
C    10.01999950  28.26999855  52.32999802
C     8.65999985  28.38999939  51.97000122
C     7.73000002  27.95999908  52.95000076
C     6.38999987  28.00000000  52.63000107
C     6.01999998  28.50000000  51.36000061
C     6.93000031  28.81999969  50.37000275
C     8.31999969  28.85999870  50.65000153
C    12.44999981  28.78999901  51.65999985
C    13.15000057  29.43000031  50.59999847
C    14.46000004  29.86999893  50.65000153
C     4.56999969  28.84000015  51.10000229
H     4.08794880  28.32250404  50.27058792
H     9.06000042  29.84000015  48.85000229
H    10.15999985  28.06999969  53.37999725
H     8.10999966  27.63999939  53.92000198
H     5.61999989  27.81999969  53.36999893
H     6.65999985  29.09000015  49.34999847
H    14.89999962  30.34000015  49.77000427
H     4.09000015  28.47999954  52.02000046
H     4.51999998  29.93000031  51.00000000
S    15.73999977  28.22000122  54.00000000
C    18.38999939  28.97999954  53.56999969
C    17.06999969  29.07999992  53.20000076
C    16.64999962  29.61999893  51.93999863
C    17.63000107  30.10999870  51.10000229
C    19.00000000  29.86999893  51.39999771
C    20.00000000  30.46999931  50.58000183
C    21.31999969  30.46999931  50.94999695
C    21.77000046  29.76000023  52.09000015
C    20.81999969  29.14999962  52.87000275
C    19.42000008  29.33000183  52.65999603
C    15.21000004  29.48999786  51.77000046
C    14.55000019  28.78999901  52.81000137
C    13.19000053  28.48999977  52.81000137
C    23.22999954  29.37999916  52.22999954
H    23.72767258  29.81368828  53.09737396
H    18.53000069  28.59999847  54.58000183
H    17.36999893  30.75000000  50.26000214
H    19.72999954  31.09999847  49.73999786
H    22.07999992  30.73999786  50.21999741
H    21.12999916  28.54999924  53.73000336
H    12.69000053  28.02000046  53.64999771
H    23.85999870  29.71999931  51.38999939
H    23.45999908  28.31000137  52.22999954
