96

S    15.29000092  34.02000046  56.95999908
C    17.89999962  34.01000214  56.13999939
C    16.61999893  33.58000183  55.87999725
C    16.25000000  32.95999908  54.65000153
C    17.26000023  32.61000061  53.75999832
C    18.59000015  33.01000214  54.01000214
C    19.56999969  32.83000183  52.98999786
C    20.85000038  33.27999878  53.20999908
C    21.14000130  34.04000092  54.36999893
C    20.23999977  34.26000214  55.38999939
C    18.93000031  33.72999954  55.20999908
C    14.80000019  32.99000168  54.54999924
C    14.15999985  33.59999847  55.65999985
C    12.77999973  33.72000122  55.65999985
C    22.55000114  34.52999878  54.61999893
H    23.04081345  33.93248367  55.38823318
H    18.04000092  34.56000137  57.06999969
H    16.95999908  32.04000092  52.88999939
H    19.18000031  32.52000046  52.02999878
H    21.55999947  33.09999847  52.39999771
H    20.52000046  34.77999878  56.31000137
H    12.23999977  34.15999985  56.50000000
H    23.09999847  34.57999802  53.67000198
H    22.49000168  35.58000183  54.91000366
S    11.61000061  32.33000183  52.11999893
C     8.94999981  32.11000061  52.78999710
C    10.19999981  32.52999878  53.18000031
C    10.57000065  33.11000061  54.43000031
C     9.53999996  33.34000015  55.31999969
C     8.19000053  33.01000214  55.02999878
C     7.16000032  33.29000092  55.97000122
C     5.86999989  32.93000031  55.63999939
C     5.55999994  32.36000061  54.36999893
C     6.57999992  32.13999939  53.47000122
C     7.94000053  32.43999863  53.73000336
C    12.01000023  33.29999924  54.55999756
C    12.69999981  32.76000214  53.44999695
C    14.09000015  32.66999817  53.39000320
C     4.26999998  31.65999985  54.02999878
H     3.68221045  32.19821930  53.28641129
H     8.78999996  31.47000122  51.93000031
H     9.75000000  33.77000046  56.29000092
H     7.44999981  33.47999954  56.98999786
H     5.15999985  32.86999893  56.45000076
H     6.38999987  31.40999985  52.68000031
H    14.63999939  32.21999741  52.56999969
H     3.70000005  31.61999893  54.97000122
H     4.46999979  30.62999916  53.70999908
S    16.06999969  34.13000107  51.11999893
C    18.70000076  34.59999847  50.34000015
C    17.43999863  34.18999863  49.99000168
C    17.05000114  33.61999893  48.74000168
C    18.02000046  33.43000031  47.77000046
C    19.36000061  33.75000000  48.13000107
C    20.48999977  33.29999924  47.38999939
C    21.78999901  33.54999924  47.75000000
C    22.09000015  34.40000153  48.85000229
C    21.04000092  34.81999969  49.64000320
C    19.70999908  34.43000031  49.34999847
C    15.62000084  33.38000107  48.63999939
C    14.92000008  33.62999725  49.86000061
C    13.53999996  33.75000000  49.86999893
C    23.50000000  34.77000046  49.26000214
H    23.84036636  34.13181686  50.07545853
H    18.92000008  35.02000046  51.31000137
H    17.75000000  32.93999863  46.84000015
H    20.38999939  32.52999878  46.62000275
H    22.70999908  33.11000061  47.37999725
H    21.14999962  35.28000259  50.61999893
H    13.02000046  34.17000198  50.72999954
H    24.01000023  34.59000015  48.29999924
H    23.71000099  35.81999969  49.50000000
S    12.38999939  32.52999878  46.31000137
C     9.68999958  32.57999802  46.95000076
C    10.97000027  32.95000076  47.29000092
C    11.33999920  33.46999741  48.57999802
C    10.31000042  33.72000122  49.47000122
C     8.97000027  33.41999817  49.12000275
C     7.90000010  33.55999756  50.05000305
C     6.63000011  33.13999939  49.75999832
C     6.32999992  32.49000168  48.53000259
C     7.31999969  32.34000015  47.58999634
C     8.61999989  32.85000229  47.84000015
C    12.77999973  33.47999954  48.72000122
C    13.50999928  33.02000046  47.60000229
C    14.89999962  32.93000031  47.52999878
C     4.98000002  31.81999969  48.36000061
H     4.28010941  32.48418045  47.85293579
H     9.39999962  31.94000053  46.11999893
H    10.47999954  33.97999954  50.51000214
H     8.14000034  33.97999954  51.02000427
H     5.84999990  33.13000107  50.52000046
H     7.13999987  31.84999847  46.63000107
H    15.32999992  32.63999939  46.58000183
H     4.59000015  31.54999924  49.34999847
H     5.17000008  30.88000107  47.84000015
