96

S    15.31000042  33.50000000  57.19999695
C    18.01000023  33.61999893  56.44000244
C    16.70999908  33.29000092  56.12999725
C    16.36000061  32.76000214  54.85000229
C    17.35000038  32.38999939  53.95000076
C    18.70000076  32.59000015  54.29000092
C    19.65999985  32.52999878  53.23999786
C    20.95999908  32.93999863  53.43000031
C    21.30000114  33.51000214  54.68999863
C    20.38000107  33.68999863  55.68999863
C    19.04000092  33.25999832  55.52999878
C    14.91000080  32.70000076  54.73999786
C    14.19000053  33.15999985  55.86999893
C    12.81000042  33.31000137  55.91999817
C    22.72000122  34.02000046  54.86999893
H    23.26185608  33.40684891  55.59009552
H    18.30999947  34.24000168  57.28000259
H    17.10000038  32.04999924  52.95000076
H    19.37999916  32.20999908  52.25000000
H    21.57999992  33.04000092  52.54000092
H    20.69000053  34.22999954  56.58000183
H    12.31999969  33.50000000  56.86999893
H    23.13999939  33.93000031  53.87000275
H    22.79999924  35.05000305  55.24000168
S    11.64999962  31.70000076  52.47000122
C     8.93000031  31.76000214  53.15999985
C    10.22999954  32.11000061  53.44999695
C    10.62999916  32.65000153  54.71000290
C     9.61000061  32.86999893  55.63000107
C     8.26000023  32.62000275  55.31000137
C     7.26999998  32.69000244  56.32999802
C     5.95000029  32.38999939  56.09000397
C     5.59999990  31.77999878  54.86000061
C     6.51000023  31.65999985  53.83999634
C     7.86999989  32.02000046  54.06000137
C    12.06999969  32.83000183  54.82999802
C    12.76000023  32.31999969  53.69999695
C    14.14999962  32.27000046  53.64999771
C     4.17000008  31.37000084  54.58000183
H     3.75740504  31.84661865  53.69078827
H     8.67999935  31.11000061  52.31999969
H     9.86999989  33.29999924  56.59999847
H     7.57999992  32.80999756  57.36999893
H     5.26999998  32.31999969  56.93999863
H     6.21999979  31.37000084  52.83000183
H    14.65999985  31.75000000  52.83000183
H     3.61999989  31.47999954  55.52000046
H     4.13999987  30.29999924  54.34999847
S    12.28999996  30.03000069  49.61000061
C     9.61000061  29.48999786  50.19000244
C    10.93999958  29.27999878  50.47999954
C    11.38000011  28.54999924  51.63000107
C    10.44999981  28.05999947  52.54000092
C     9.07999992  28.13999939  52.18999863
C     8.09000015  27.69000053  53.11000061
C     6.76999998  27.72000122  52.74000168
C     6.34000015  28.36000061  51.53999710
C     7.26000023  29.01000023  50.76000214
C     8.64999962  28.81999969  51.00000000
C    12.79999924  28.75999832  51.86999893
C    13.43000031  29.54999924  50.87999725
C    14.78000069  29.90999985  50.84999847
C     4.86000013  28.57999992  51.36000061
H     4.42743492  28.28925896  50.40268326
H     9.23999977  30.03000069  49.31999969
H    10.59999943  27.72000122  53.55999756
H     8.45000076  27.47999954  54.12000275
H     6.00000000  27.32999992  53.40000153
H     6.96000004  29.73999977  50.01999664
H    15.18000031  30.39999962  49.97000122
H     4.19999981  28.15999985  52.12999725
H     4.71000004  29.63999939  51.58000183
S    15.98999977  28.06999969  54.16999817
C    18.68000031  28.44000053  53.52000427
C    17.35999870  28.71000099  53.25000000
C    17.00000000  29.50000000  52.11000061
C    17.98999977  29.93000031  51.25000000
C    19.34999847  29.65999985  51.50000000
C    20.34000015  30.19000053  50.61999893
C    21.63999939  29.80999947  50.87999725
C    22.04999924  29.11999893  52.04999924
C    21.09000015  28.64000130  52.90999985
C    19.70999908  28.95000076  52.69000244
C    15.54999924  29.48999786  51.93999863
C    14.88999939  28.88000107  53.02999878
C    13.56999969  28.45000076  53.00000000
C    23.48999977  28.75999832  52.32999802
H    23.97912979  29.33419418  53.11685944
H    18.89999962  27.89999962  54.43999863
H    17.71000099  30.50000000  50.37000275
H    19.96999931  30.79000092  49.79999924
H    22.27000046  30.06000137  50.02999878
H    21.32999802  28.01000214  53.75999832
H    13.10999966  27.82999992  53.76999664
H    24.01000023  28.84000015  51.36000061
H    23.64000130  27.70999908  52.60000229
