96

S    15.10000038  33.87000275  57.04999924
C    17.84000015  33.88999939  56.33999634
C    16.52000046  33.67000198  56.00999832
C    16.14999962  33.20999908  54.69999695
C    17.15999985  32.88999939  53.81999969
C    18.53000069  33.09000015  54.09999847
C    19.57999992  32.93000031  53.15000153
C    20.88999939  33.25999832  53.39000320
C    21.14000130  33.86000061  54.65000153
C    20.17999840  34.15000153  55.59999847
C    18.85000038  33.68999863  55.37000275
C    14.70000076  33.20000076  54.52000046
C    14.01000023  33.68000031  55.65999985
C    12.61999989  33.69999695  55.70000076
C    22.56999969  34.27000046  54.93000031
H    23.01113319  33.64387512  55.70554352
H    18.07999992  34.54000092  57.16999817
H    16.87999916  32.52000046  52.83000183
H    19.22000122  32.45999908  52.23999786
H    21.61999893  33.22000122  52.58999634
H    20.45000076  34.65999985  56.52000046
H    12.10999966  34.01000214  56.60999680
H    23.15000153  34.15000153  54.01000214
H    22.59000015  35.29000092  55.31999969
S    11.51000023  32.22999954  52.15000153
C     8.84000015  32.02000046  52.83000183
C    10.07999992  32.49000168  53.18999863
C    10.44000053  33.09000015  54.43999863
C     9.40999985  33.18999863  55.34999847
C     8.10000038  32.75000000  55.02999878
C     7.00000000  32.81999969  55.93000031
C     5.71000004  32.40999985  55.65999985
C     5.40999985  31.91999817  54.36000061
C     6.44000006  31.77999878  53.46000290
C     7.76999998  32.20999908  53.74000168
C    11.87000084  33.29000092  54.59000015
C    12.56999969  32.83000183  53.44999695
C    13.94999981  32.70999908  53.43999863
C     3.98000002  31.54000092  54.05000305
H     3.65991783  32.05924606  53.14665604
H     8.67000008  31.57999992  51.84999847
H     9.51000023  33.54000092  56.38000107
H     7.23999977  33.11999893  56.95000076
H     4.90999985  32.54000092  56.38000107
H     6.28000021  31.27000046  52.51999664
H    14.47999954  32.06999969  52.74000168
H     3.40999985  31.87000084  54.93000031
H     3.94000006  30.45000076  54.06000137
S    15.60999966  34.47000122  51.24000168
C    18.27999878  34.24000168  50.65999985
C    17.00000000  33.97999954  50.25000000
C    16.61999893  33.45999908  48.96999741
C    17.63000107  33.32999802  48.04000092
C    18.97999954  33.61999893  48.39000320
C    20.03000069  33.65999985  47.43000031
C    21.31000137  34.03000259  47.76000214
C    21.65999985  34.43999863  49.08000183
C    20.66999817  34.34999847  50.02999878
C    19.32999992  34.01000214  49.72999954
C    15.17000008  33.45000076  48.80000305
C    14.50000000  33.95999908  49.93999863
C    13.12000084  34.05999756  49.89999771
C    23.09000015  34.87999725  49.29999924
H    23.56127548  34.24449158  50.04975510
H    18.56999969  34.68000031  51.60999680
H    17.32999992  33.00000000  47.04999924
H    19.78000069  33.39999771  46.39999771
H    22.10000038  33.94000244  47.02999878
H    20.85000038  34.76000214  51.02000427
H    12.48000050  34.45000076  50.68999863
H    23.71000099  34.77999878  48.40000153
H    23.03999901  35.91999817  49.64000320
S    12.05999947  32.61000061  46.33999634
C     9.39000034  32.52999878  46.91999817
C    10.64000034  32.88999939  47.36999893
C    10.95999908  33.43000031  48.66000366
C     9.89000034  33.54000092  49.54000092
C     8.56999969  33.31999969  49.09000015
C     7.46000004  33.54999924  49.94999695
C     6.15999985  33.29999924  49.55999756
C     5.89999962  32.75000000  48.27999878
C     6.94999981  32.49000168  47.43000031
C     8.28999996  32.81999969  47.77000046
C    12.38999939  33.62999725  48.79000092
C    13.10999966  33.18999863  47.64999771
C    14.50000000  33.18000031  47.60000229
C     4.48999977  32.29999924  47.95000076
H     3.97727776  32.99074936  47.28061295
H     9.06999969  32.06999969  45.98999786
H    10.03999901  33.97000122  50.52000046
H     7.59999990  33.95999908  50.94999695
H     5.32999992  33.51000214  50.22999573
H     6.71999979  31.80000114  46.62000275
H    15.01999950  32.81999969  46.72000122
H     4.00999975  32.22999954  48.93000031
H     4.46000004  31.31999969  47.45999908
