96

S    15.17000008  33.77000046  57.22999954
C    17.84000015  33.86000061  56.56000137
C    16.54999924  33.65000153  56.12999725
C    16.28000069  33.13000107  54.81999969
C    17.27000046  33.02000046  53.86000061
C    18.57999992  33.31000137  54.31000137
C    19.68000031  33.18000031  53.40999985
C    20.97999954  33.29000092  53.81999969
C    21.31000137  33.75999832  55.12000275
C    20.28000069  33.80000305  56.04000092
C    18.92000008  33.62999725  55.66999817
C    14.82999992  33.08000183  54.68000031
C    14.11000061  33.34000015  55.86999893
C    12.71999931  33.44000244  55.93000031
C    22.72000122  34.10000229  55.52999878
H    23.16151047  33.46621704  56.29907990
H    18.04000092  34.13000107  57.60000229
H    17.07999992  32.69000244  52.84000015
H    19.45000076  32.78000259  52.43000031
H    21.80000114  33.09000015  53.13000107
H    20.48000145  34.20000076  57.02999878
H    12.17000008  33.61000061  56.86000061
H    23.38000107  34.20999908  54.65999985
H    22.70000076  35.13999939  55.86000061
S    11.61000061  32.22999954  52.30999756
C     8.89999962  32.20000076  52.90000153
C    10.18000031  32.47999954  53.33000183
C    10.55999947  33.09999847  54.55999756
C     9.51000023  33.29000092  55.45000076
C     8.17000008  33.04999924  55.08999634
C     7.09999990  33.15999985  56.03000259
C     5.84999990  32.66999817  55.73999786
C     5.59999990  32.02000046  54.50000000
C     6.54999971  31.97000122  53.50999832
C     7.85000038  32.49000168  53.81000137
C    12.00000000  33.22999954  54.75000000
C    12.69999981  32.81999969  53.59000397
C    14.07999992  32.70000076  53.55999756
C     4.21999979  31.54999924  54.09999847
H     3.77704954  32.14297867  53.29983139
H     8.59000015  31.76000214  51.95999908
H     9.63999939  33.68000031  56.45999908
H     7.36000013  33.62999725  56.97000122
H     5.07000017  32.93999863  56.44000244
H     6.30999994  31.45000076  52.58999634
H    14.68000031  32.29999924  52.75000000
H     3.67000008  31.77000046  55.02999878
H     4.30000019  30.48000145  53.90999603
S    12.11999989  30.00999832  49.45999908
C     9.43000031  29.68000031  50.21999741
C    10.76000023  29.37000084  50.40999985
C    11.26999950  28.77000046  51.59999847
C    10.38000011  28.32999992  52.56000137
C     8.98999977  28.48999977  52.35000229
C     8.06999969  28.15000153  53.39000320
C     6.71999979  28.23999786  53.15999985
C     6.23000050  28.80000114  51.95000076
C     7.11000013  29.31999969  51.03000259
C     8.52000046  29.13999939  51.16000366
C    12.71000004  28.85000038  51.81000137
C    13.26000023  29.63999939  50.77000046
C    14.57999992  30.10000038  50.75000000
C     4.74000025  29.02000046  51.79999924
H     4.33338308  28.57058144  50.89402771
H     9.11000061  30.29000092  49.38000107
H    10.72000027  27.93000031  53.50999832
H     8.38000011  27.63000107  54.29000092
H     5.98000002  27.80999947  53.82999802
H     6.71999979  29.82999992  50.14999771
H    14.94999981  30.48999977  49.80999756
H     4.23000002  28.67000198  52.70999908
H     4.55999994  30.10000038  51.81999969
S    16.03999901  28.65999985  54.15999985
C    18.68999863  29.28999901  53.34000015
C    17.32999992  29.41999817  53.20000076
C    16.81999969  30.00000000  52.00000000
C    17.68000031  30.45999908  51.02000427
C    19.09000015  30.46999931  51.17000198
C    20.05000114  31.02999878  50.27000046
C    21.37000084  30.97999954  50.63999939
C    21.91999817  30.19000053  51.69000244
C    20.96999931  29.61999893  52.50999832
C    19.56999969  29.79999924  52.35000229
C    15.38000011  29.80999947  51.86000061
C    14.82999992  29.07999992  52.94000244
C    13.53999996  28.54999924  52.88999939
C    23.39999962  29.99000168  51.91999817
H    23.69918251  30.16808510  52.95289612
H    18.89000130  28.59999847  54.15000153
H    17.38000107  30.88000107  50.06999969
H    19.80999947  31.24000168  49.22999954
H    21.97000122  31.32999802  49.80999756
H    21.30000114  29.15999985  53.43999863
H    13.15000057  27.95000076  53.70999908
H    23.88000107  30.68000031  51.22000122
H    23.61000061  28.97000122  51.59000015
