96

S    14.98999977  33.22000122  57.18000031
C    17.71000099  33.52999878  56.56999969
C    16.44000053  33.16999817  56.17000198
C    16.04999924  32.93999863  54.80999756
C    17.12000084  32.77000046  53.95000076
C    18.46999931  32.97999954  54.31000137
C    19.55999947  32.68000031  53.44999695
C    20.84000015  33.11000061  53.73000336
C    21.15999985  33.61000061  55.01999664
C    20.12000084  33.77999878  55.91999817
C    18.76000023  33.52000046  55.61000061
C    14.61999989  32.81999969  54.58000183
C    13.90999985  33.13999939  55.77000046
C    12.53000069  33.23999786  55.81999969
C    22.63000107  33.82999802  55.26000214
H    23.03384209  33.09316254  55.95432663
H    17.80999947  33.93000031  57.56999969
H    16.84999847  32.29000092  53.01000214
H    19.29999924  32.47000122  52.42000198
H    21.57999992  33.16999817  52.94000244
H    20.27000046  34.08000183  56.95000076
H    12.05999947  33.36999893  56.79000092
H    23.13999939  33.77999878  54.29000092
H    22.67000008  34.84999847  55.65000153
S    11.43000031  32.07999802  52.11999893
C     8.80000019  31.67000008  52.97999954
C    10.06999969  32.11999893  53.26000214
C    10.39000034  32.68000031  54.54000092
C     9.42000008  32.79999924  55.51000214
C     8.06999969  32.56000137  55.17000198
C     7.03999996  32.73999786  56.12999725
C     5.73999977  32.47000122  55.77999878
C     5.40999985  31.80999947  54.56999969
C     6.40999985  31.56999969  53.64999771
C     7.76999998  31.87999916  53.93000031
C    11.82000065  32.88999939  54.66999817
C    12.48999977  32.52999878  53.47000122
C    13.88000011  32.57999802  53.41999817
C     3.98000002  31.42000008  54.25000000
H     3.55891657  32.04805756  53.46493149
H     8.48999977  31.18999863  52.04999924
H     9.57999992  33.06000137  56.56000137
H     7.37999964  33.15000153  57.08000183
H     5.03000021  32.84000015  56.51000214
H     6.19999981  31.09999847  52.69000244
H    14.37999916  32.14999771  52.55000305
H     3.35999990  31.56999969  55.13999939
H     3.94000006  30.39999962  53.85000229
S    15.44999981  34.13000107  51.06999969
C    18.15000153  34.20000076  50.41999817
C    16.87000084  33.90000153  50.01999664
C    16.52000046  33.40999985  48.72000122
C    17.52000046  33.29000092  47.77999878
C    18.84000015  33.63999939  48.15000153
C    19.86999893  33.45999908  47.18999863
C    21.18999863  33.72000122  47.50000000
C    21.51000023  34.20999908  48.79000092
C    20.53999901  34.47999954  49.73999786
C    19.19999886  34.09000015  49.47000122
C    15.06999969  33.34999847  48.60000229
C    14.34000015  33.77999878  49.73999786
C    12.94999981  33.90000153  49.78000259
C    22.95999908  34.47000122  49.13999939
H    23.35028267  33.92360306  49.99861908
H    18.31999969  34.69000244  51.37000275
H    17.31999969  32.79000092  46.83000183
H    19.60000038  33.06999969  46.20999908
H    21.94999886  33.55999756  46.73999786
H    20.92000008  34.90999985  50.65999985
H    12.53000069  34.15999985  50.75000000
H    23.54000092  34.26000214  48.22999954
H    23.00000000  35.54000092  49.34999847
S    11.78999996  32.72000122  46.19999695
C     9.06000042  32.63000107  46.86000061
C    10.36000061  32.90999985  47.22999954
C    10.75000000  33.36999893  48.52000427
C     9.77000046  33.50000000  49.48999786
C     8.43000031  33.15999985  49.18000031
C     7.39000034  33.22000122  50.14999771
C     6.05000019  33.01000214  49.89999771
C     5.73999977  32.56999969  48.59000397
C     6.67999983  32.52000046  47.57999802
C     8.05000019  32.81999969  47.83000183
C    12.18999958  33.48999786  48.68000031
C    12.90999985  33.20999908  47.49000168
C    14.29999924  33.08000183  47.47000122
C     4.33999968  32.27000046  48.09999847
H     3.95493937  32.87611389  47.27996445
H     8.85999966  32.06000137  45.96000290
H     9.90999985  33.65999985  50.54999924
H     7.68000031  33.45000076  51.17000198
H     5.28999996  33.11999893  50.66999817
H     6.43000031  32.33000183  46.53999710
H    14.86999989  32.90999985  46.56000137
H     3.68000007  32.38999939  48.95999908
H     4.32000017  31.21000099  47.81000137
