96

S    14.88999939  33.84000015  57.36999893
C    17.56000137  33.93000031  56.56999969
C    16.28000069  33.50000000  56.31999969
C    15.93999958  32.81999969  55.10000229
C    16.90999985  32.62000275  54.13999939
C    18.22999954  33.08000183  54.34999847
C    19.29999924  32.95999908  53.41999817
C    20.59000015  33.31999969  53.73000336
C    20.94000053  33.84999847  55.00000000
C    19.90999985  34.11000061  55.87999725
C    18.56999969  33.72000122  55.59999847
C    14.50000000  32.85000229  54.86999893
C    13.83999920  33.38000107  56.00999832
C    12.46999931  33.62999725  55.97000122
C    22.34999847  34.36000061  55.22999573
H    22.90759277  33.80955505  55.98775482
H    17.79999924  34.47000122  57.48000336
H    16.54000092  32.06999969  53.27999878
H    19.15999985  32.47000122  52.45999908
H    21.31000137  33.15999985  52.94000244
H    20.10000038  34.56999969  56.84999847
H    11.92999935  33.81999969  56.88999939
H    22.79999924  34.18000031  54.23999786
H    22.32999992  35.45000076  55.35999680
S    11.40999985  32.49000168  52.29000092
C     8.71000004  32.36999893  52.97000122
C     9.98999977  32.72999954  53.31999969
C    10.34000015  33.15000153  54.64000320
C     9.35999966  33.31999969  55.61000061
C     8.03999996  33.01000214  55.22999573
C     7.00000000  33.04000092  56.19999695
C     5.68000031  32.78000259  55.87999725
C     5.32999992  32.36000061  54.56999969
C     6.32000017  32.16999817  53.63999939
C     7.67000008  32.50999832  53.93000031
C    11.77999973  33.29999924  54.79999924
C    12.48000050  32.80999756  53.67000198
C    13.83999920  32.50999832  53.68999863
C     3.97000027  31.73999977  54.36999893
H     3.47818899  32.14627838  53.48616409
H     8.48999977  31.98999786  51.97999954
H     9.61000061  33.51000214  56.65000153
H     7.20000029  33.47999954  57.16999817
H     4.86000013  32.86999893  56.58000183
H     6.17000008  31.61999893  52.70999908
H    14.22999954  32.23999786  52.70999908
H     3.50000000  31.98999786  55.33000183
H     4.05000019  30.66999817  54.13999939
S    15.22999954  34.40000153  51.31999969
C    18.01000023  34.40999985  50.75000000
C    16.70999908  34.11000061  50.38999939
C    16.36000061  33.63999939  49.09000015
C    17.39999962  33.38000107  48.20999908
C    18.75000000  33.61000061  48.55999756
C    19.84000015  33.54999924  47.63000107
C    21.11000061  33.95999908  47.94000244
C    21.40999985  34.40999985  49.26000214
C    20.38999939  34.59000015  50.15999603
C    19.07999992  34.13999939  49.86000061
C    14.93000031  33.59999847  48.85000229
C    14.17000008  34.11999893  49.93000031
C    12.77999973  34.26000214  49.89999771
C    22.79000092  34.97000122  49.54999924
H    23.31754875  34.26422501  50.19161606
H    18.19000053  34.86999893  51.70999908
H    17.18000031  33.22000122  47.15999985
H    19.63000107  33.34000015  46.59000015
H    21.81999969  34.20999908  47.15999985
H    20.48000145  35.02000046  51.14999771
H    12.23999977  34.52999878  50.80999756
H    23.43000031  35.22000122  48.69999695
H    22.56000137  35.84000015  50.17000198
S    11.77999973  32.79999924  46.38999939
C     9.06999969  32.65999985  46.97000122
C    10.32999992  33.04000092  47.37999725
C    10.62999916  33.70999908  48.61000061
C     9.57999992  33.88999939  49.50000000
C     8.25000000  33.56999969  49.15000153
C     7.14999962  33.75999832  50.04000092
C     5.86999989  33.41999817  49.68000031
C     5.64000034  32.79000092  48.41999817
C     6.69000053  32.52999878  47.56000137
C     8.01999950  32.90000153  47.88999939
C    12.06999969  33.82999802  48.77999878
C    12.84999943  33.38999939  47.68000031
C    14.22999954  33.25999832  47.68000031
C     4.28000021  32.23999786  48.06999969
H     3.90390205  32.89284897  47.28232193
H     8.86999989  32.14999771  46.03000259
H     9.81000042  34.27000046  50.48999786
H     7.30999994  34.11999893  51.04999924
H     5.07999992  33.56999969  50.40000153
H     6.65999985  31.81999969  46.73999786
H    14.73000050  32.77000046  46.84000015
H     3.65000010  32.16999817  48.95999908
H     4.46999979  31.21000099  47.72999573
