96

S    15.26000023  34.36000061  56.84999847
C    17.94000053  34.26000214  56.16000366
C    16.64999962  33.91999817  55.84999847
C    16.28999901  33.38000107  54.56999969
C    17.31999969  33.22000122  53.66000366
C    18.65999985  33.55999756  53.94000244
C    19.70999908  33.38999939  53.00000000
C    20.98999977  33.75999832  53.34999847
C    21.28000069  34.43999863  54.55999756
C    20.29999924  34.63000107  55.50000000
C    18.98999977  34.17000198  55.20999908
C    14.84000015  33.31000137  54.43999863
C    14.14999962  33.79000092  55.59000015
C    12.76999950  33.93000031  55.51000214
C    22.67000008  34.95999908  54.86999893
H    23.19073296  34.43213272  55.66893387
H    18.22000122  34.61999893  57.15000153
H    17.01000023  32.83000183  52.70000076
H    19.60000038  32.73999786  52.12999725
H    21.84000015  33.51000214  52.71999741
H    20.59000015  35.19000244  56.38999939
H    12.27000046  34.34000015  56.38999939
H    23.36000061  34.87999725  54.02000046
H    22.60000038  36.04000092  55.06000137
S    11.61999893  32.43999863  52.00000000
C     8.89000034  32.43000031  52.76000214
C    10.21999931  32.69000244  53.04999924
C    10.57000065  33.29999924  54.29000092
C     9.57999992  33.50000000  55.22999573
C     8.23000050  33.11000061  55.05000305
C     7.21000004  33.27999878  56.02000427
C     5.89999962  32.90999985  55.79000092
C     5.52999973  32.27000046  54.58000183
C     6.53999996  32.11999893  53.67000198
C     7.90999985  32.52000046  53.77999878
C    12.01000023  33.44000244  54.45000076
C    12.69999981  32.90000153  53.33000183
C    14.09000015  32.81999969  53.36999893
C     4.17000008  31.76000214  54.16999817
H     3.72168255  32.34352493  53.36587524
H     8.60000038  31.97000122  51.81999969
H     9.81000042  34.04999924  56.13999939
H     7.46999979  33.72000122  56.97999954
H     5.15999985  32.84000015  56.59000015
H     6.14000034  31.76000214  52.71999741
H    14.70999908  32.61000061  52.50000000
H     3.47000003  31.76000214  55.00999832
H     4.28000021  30.72000122  53.81999969
S    11.63000011  30.42000008  49.38999939
C     9.00000000  29.89999962  50.12000275
C    10.34000015  29.72999954  50.38999939
C    10.81999969  29.04999924  51.55000305
C     9.85999966  28.78999901  52.51999664
C     8.47000027  28.88999939  52.23999786
C     7.46000004  28.26999855  53.02999878
C     6.11999989  28.31000137  52.72999573
C     5.64000034  29.02000046  51.59999847
C     6.58999968  29.60000038  50.79000092
C     7.99000025  29.48999786  51.03000259
C    12.25000000  29.25000000  51.65999985
C    12.84999943  29.97999954  50.59999847
C    14.21000004  30.27000046  50.54999924
C     4.15999985  29.07999992  51.29000092
H     3.91150665  28.37711906  50.49482346
H     8.71999931  30.39999962  49.20000076
H    10.14000034  28.26999855  53.43000031
H     7.85000038  27.70000076  53.88000107
H     5.42999983  27.84000015  53.41999817
H     6.32999992  30.20000076  49.92000198
H    14.65000057  30.65999985  49.62999725
H     3.58000016  28.78000069  52.16999817
H     3.81999993  30.07999802  51.00000000
S    15.60999966  28.92999840  53.96999741
C    18.27000046  29.50000000  53.36000061
C    16.93000031  29.71999931  53.09999847
C    16.40999985  30.27000046  51.88999939
C    17.35999870  30.73999786  51.00000000
C    18.73999977  30.65000153  51.25000000
C    19.70000076  31.07999992  50.28999710
C    21.04999924  30.92000008  50.47999954
C    21.45000076  30.28000069  51.69000244
C    20.62000084  29.92000198  52.71999741
C    19.22999954  30.03000069  52.45999908
C    14.98999977  29.99000168  51.66999817
C    14.40000057  29.23999977  52.71999741
C    13.07000065  28.84000015  52.71999741
C    22.89999962  29.97999954  51.97999954
H    23.26881409  30.58286858  52.80983353
H    18.53000069  28.85000038  54.18000031
H    17.05999947  31.02999878  50.00000000
H    19.31999969  31.53000069  49.38000107
H    21.73999977  31.40000153  49.79000092
H    20.90999985  29.40000153  53.63999939
H    12.60000038  28.29999924  53.54000092
H    23.42000008  30.12000084  51.03000259
H    22.88000107  28.94000053  52.31999969
