96

S    15.42000008  33.90000153  56.98999786
C    18.07999992  34.26000214  56.25000000
C    16.80999947  33.84999847  55.89000320
C    16.45000076  33.18000031  54.68000031
C    17.43999863  33.04000092  53.72000122
C    18.77000046  33.36999893  54.06000137
C    19.81999969  33.15999985  53.11999893
C    21.07000160  33.65999985  53.36999893
C    21.45000076  34.27999878  54.59000015
C    20.43000031  34.47999954  55.50000000
C    19.09000015  34.06999969  55.27000046
C    15.05000019  32.78000259  54.65000153
C    14.30999947  33.23999786  55.77999878
C    12.93000031  33.43000031  55.81999969
C    22.89999962  34.64999771  54.80999756
H    23.31888771  34.08201218  55.64067459
H    18.39999962  34.47000122  57.25999832
H    17.19000053  32.81999969  52.69000244
H    19.61000061  32.72999954  52.14000320
H    21.86000061  33.61999893  52.63000107
H    20.59000015  35.11000061  56.38000107
H    12.43000031  33.90000153  56.65999985
H    23.43000031  34.52000046  53.86000061
H    22.90999985  35.68999863  55.13999939
S    11.84999943  32.13000107  52.22999954
C     9.13999939  32.13000107  52.97000122
C    10.44000053  32.43999863  53.27000046
C    10.73999977  33.02999878  54.54000092
C     9.71000004  33.20000076  55.45000076
C     8.36999989  32.86000061  55.13000107
C     7.27999973  33.20000076  55.97999954
C     5.98999977  32.79999924  55.73999786
C     5.73000002  32.02000046  54.58000183
C     6.71000004  31.87000084  53.62999725
C     8.02999973  32.34999847  53.82999802
C    12.18999958  33.08000183  54.68999863
C    12.92000008  32.56999969  53.57999802
C    14.29999924  32.44999695  53.52000427
C     4.38000011  31.38000107  54.34999847
H     3.74619102  31.98532295  53.70194626
H     8.97000027  31.60000038  52.02999878
H     9.94000053  33.62999725  56.42000198
H     7.46000004  33.74000168  56.90999985
H     5.23000002  32.90000153  56.50000000
H     6.48999977  31.38000107  52.68000031
H    14.73000050  32.27000046  52.54000092
H     3.81000018  31.22999954  55.27999878
H     4.51000023  30.36999893  53.95000076
S    12.18999958  30.35000038  49.54000092
C     9.53999996  29.84999847  50.18000031
C    10.85999966  29.65999985  50.48999786
C    11.39000034  28.88000107  51.58000183
C    10.44999981  28.16999817  52.30999756
C     9.06999969  28.29999924  52.01000214
C     8.07999992  27.90999985  52.95000076
C     6.74000025  28.02000046  52.69000244
C     6.28000021  28.80000114  51.59999847
C     7.21000004  29.34000015  50.73999786
C     8.59000015  29.04000092  50.87999725
C    12.82999992  29.00000000  51.73999786
C    13.40000057  29.77999878  50.70000076
C    14.73000050  30.15999985  50.68999863
C     4.81999969  29.18999863  51.44000244
H     4.45602179  28.63332748  50.57644272
H     9.19999981  30.48000145  49.36999893
H    10.76000023  27.73999977  53.26000214
H     8.42000008  27.43999863  53.88000107
H     6.01000023  27.79999924  53.47000122
H     7.00999975  30.20999908  50.12000275
H    15.10000038  30.65999985  49.79999924
H     4.28999996  29.02000046  52.37999725
H     4.81999969  30.27000046  51.26999664
S    16.15999985  28.57000160  54.03999710
C    18.81000137  29.17000008  53.37999725
C    17.47999954  29.27999878  53.08000183
C    17.02999878  30.00000000  51.91999817
C    17.93000031  30.66999817  51.11000061
C    19.29999924  30.48000145  51.37000275
C    20.28000069  31.07000160  50.52000046
C    21.61999893  30.92000008  50.77000046
C    22.10000038  30.17000008  51.86999893
C    21.18000031  29.60000038  52.71999741
C    19.78000069  29.75000000  52.51999664
C    15.59000015  29.80999947  51.73999786
C    14.98999977  29.13000107  52.83000183
C    13.67000008  28.68999863  52.81000137
C    23.55999947  29.79000092  52.01000214
H    23.97172737  30.30821037  52.87604904
H    19.10000038  28.54000092  54.22000122
H    17.61999893  31.18999863  50.20999908
H    19.90999985  31.70000076  49.71000290
H    22.36999893  31.44000053  50.17000198
H    21.61000061  29.11000061  53.59000397
H    13.28999996  28.03999901  53.60000229
H    24.13000107  30.10999870  51.11999893
H    23.72999954  28.71000099  52.09999847
