96

S    15.44000053  33.79000092  57.14000320
C    18.15999985  33.77999878  56.36000061
C    16.84000015  33.46999741  56.09000397
C    16.46999931  32.97000122  54.80999756
C    17.42000008  32.79000092  53.81999969
C    18.77000046  33.13000107  54.02999878
C    19.78999901  32.93000031  53.04999924
C    21.07000160  33.38999939  53.29999924
C    21.37000084  34.02000046  54.54000092
C    20.45000076  34.09000015  55.56000137
C    19.11000061  33.68999863  55.31000137
C    15.03000069  32.78000259  54.69999695
C    14.34000015  33.29000092  55.83000183
C    12.98999977  33.58000183  55.84000015
C    22.79999924  34.45999908  54.75999832
H    23.34060669  33.72022247  55.35039902
H    18.52000046  33.95999908  57.36999893
H    17.20999908  32.20999908  52.91999817
H    19.47000122  32.55000305  52.08000183
H    21.88999939  33.18000031  52.63000107
H    20.71000099  34.36000061  56.58000183
H    12.67000008  34.05999756  56.76000214
H    23.32999992  34.43999863  53.80000305
H    22.93000031  35.50000000  55.07999802
S    11.72999954  32.11999893  52.36999893
C     9.10000038  31.98999786  53.16999817
C    10.36000061  32.45999908  53.44999695
C    10.76000023  33.11000061  54.65999985
C     9.71000004  33.34999847  55.52000046
C     8.38000011  32.90000153  55.28999710
C     7.37999964  33.11999893  56.26999664
C     6.05999994  32.92000198  55.93999863
C     5.72000027  32.37999725  54.66999817
C     6.65000010  32.13999939  53.68999863
C     8.01999950  32.34000015  54.01000214
C    12.20999908  33.09999847  54.78000259
C    12.88000011  32.63999939  53.61999893
C    14.23999977  32.33000183  53.63999939
C     4.32999992  31.86000061  54.36999893
H     3.80592370  32.46906281  53.63346100
H     8.82999992  31.63000107  52.18000031
H     9.85000038  33.65000153  56.56000137
H     7.55000019  33.59000015  57.23999786
H     5.26999998  33.11999893  56.65000153
H     6.44000006  31.61000061  52.76000214
H    14.72000027  31.88999939  52.77000046
H     3.65999985  31.77000046  55.22999573
H     4.44999981  30.82999992  54.01000214
S    11.90999985  30.51000214  49.33000183
C     9.22999954  29.84000015  49.93000031
C    10.57000065  29.70000076  50.17000198
C    11.10000038  28.92999840  51.25999832
C    10.19999981  28.38000107  52.15999985
C     8.80999947  28.61000061  52.02999878
C     7.94000053  28.26999855  53.11000061
C     6.58999968  28.44000053  52.91999817
C     6.05999994  28.94000053  51.70000076
C     6.90000010  29.33000183  50.68000031
C     8.30999947  29.28999901  50.86000061
C    12.51999950  29.09000015  51.50000000
C    13.10999966  29.82000160  50.43000031
C    14.44000053  30.22000122  50.48999786
C     4.59999990  29.30999947  51.56999969
H     4.15182734  28.82625771  50.70211029
H     8.80999947  30.32999992  49.05000305
H    10.57999992  27.88000107  53.04000092
H     8.31999969  27.72999954  53.96999741
H     5.92999983  28.22999954  53.75999832
H     6.60000038  29.87999916  49.79000092
H    14.85000038  30.62999916  49.56999969
H     4.15000010  28.97000122  52.51999664
H     4.50000000  30.39999962  51.51000214
S    15.84000015  28.51000023  53.81999969
C    18.50000000  29.11000061  53.06999969
C    17.14999962  29.25000000  52.88000107
C    16.61999893  29.89999962  51.72000122
C    17.52000046  30.39999962  50.79000092
C    18.92000008  30.26000023  50.97999954
C    19.82999992  30.78000069  50.00999832
C    21.18000031  30.82999992  50.25000000
C    21.73000145  30.22000122  51.40999603
C    20.86000061  29.73999977  52.36000061
C    19.45000076  29.67000008  52.18000031
C    15.19000053  29.72999954  51.56000137
C    14.60999966  29.02000046  52.63999939
C    13.23999977  28.78000069  52.65999603
C    23.18000031  30.48000145  51.76000214
H    23.55099678  29.98771667  52.65895462
H    18.82999992  28.35000038  53.77999878
H    17.11000061  30.86999893  49.91000366
H    19.43000031  31.19999886  49.09999847
H    21.86000061  31.45999908  49.65999985
H    21.25999832  29.31999969  53.27000046
H    12.79999924  28.26000023  53.50999832
H    23.32999992  31.56999969  51.86000061
H    23.84000015  30.13999939  50.96000290
