96

S    14.93000031  33.90999985  56.93000031
C    17.63000107  33.52000046  56.51000214
C    16.35000038  33.20000076  56.13999939
C    16.02000046  32.65999985  54.86000061
C    17.02999878  32.33000183  53.97999573
C    18.35000038  32.72000122  54.31000137
C    19.40999985  32.61000061  53.36999893
C    20.66999817  33.11000061  53.61999893
C    20.98999977  33.72999954  54.86000061
C    20.00000000  33.81000137  55.80999756
C    18.68000031  33.31000137  55.58000183
C    14.57999992  32.66999817  54.61000061
C    13.86000061  33.31000137  55.65000153
C    12.46999931  33.43000031  55.65999985
C    22.36000061  34.26000214  55.20000076
H    22.83632278  33.74102020  56.03179169
H    17.87999916  34.15999985  57.36000061
H    16.87000084  31.83000183  53.02999878
H    19.11999893  32.23999786  52.38999939
H    21.42999840  32.95000076  52.85999680
H    20.23999977  34.29999924  56.75000000
H    11.90000057  33.72000122  56.53999710
H    22.98000145  34.15000153  54.29999924
H    22.21999931  35.31999969  55.47000122
S    11.42000008  31.84999847  52.18000031
C     8.69000053  31.87999916  52.84999847
C     9.98999977  32.13000107  53.20999908
C    10.31999969  32.77000046  54.45000076
C     9.31999969  33.20999908  55.30000305
C     7.99000025  32.86999893  54.98000336
C     6.93000031  32.99000168  55.91999817
C     5.65000010  32.52999878  55.66999817
C     5.32999992  31.88999939  54.43999863
C     6.30000019  31.80999947  53.47000122
C     7.63999987  32.18000031  53.75999832
C    11.76000023  32.95000076  54.54999924
C    12.50000000  32.45999908  53.44999695
C    13.88000011  32.26000214  53.47000122
C     3.88000011  31.55999947  54.18000031
H     3.51815462  32.09212494  53.30022049
H     8.43999958  31.18000031  52.05999756
H     9.64999962  33.77000046  56.18000031
H     7.09999990  33.46999741  56.86999893
H     4.90000010  32.72000122  56.42000198
H     6.05999994  31.45999908  52.47000122
H    14.40000057  31.84000015  52.62000275
H     3.32999992  31.94000053  55.05000305
H     3.78999996  30.46999931  54.13999939
S    12.36999989  29.96000099  49.13000107
C     9.67000008  29.37000084  49.71000290
C    10.98999977  29.34999847  50.07999802
C    11.44000053  28.81000137  51.31999969
C    10.47999954  28.28000069  52.16999817
C     9.11000061  28.31999969  51.84000015
C     8.07999992  27.95000076  52.75000000
C     6.75000000  28.18000031  52.47000122
C     6.34000015  28.78000069  51.25000000
C     7.28999996  29.13999939  50.31999969
C     8.65999985  28.88000107  50.59000015
C    12.89000034  28.88000107  51.43000031
C    13.53000069  29.65999985  50.44000244
C    14.88999939  29.93000031  50.35999680
C     4.88999987  29.20999908  51.16000366
H     4.29921150  28.63344765  50.44820404
H     9.40999985  29.89999962  48.80000305
H    10.80999947  28.13999939  53.20000076
H     8.27000046  27.60999870  53.75999832
H     6.05999994  28.13999939  53.29999924
H     7.00999975  29.73999977  49.45999908
H    15.36000061  30.30999947  49.45000076
H     4.32000017  29.15999985  52.09000015
H     4.80999994  30.25000000  50.81999969
S    16.18000031  28.36999893  53.76999664
C    18.84000015  28.87000084  53.22999954
C    17.53999901  28.95999908  52.80000305
C    17.13000107  29.61999893  51.59000015
C    18.09999847  30.07999802  50.72000122
C    19.45999908  30.00000000  51.10000229
C    20.50000000  30.42000008  50.21999741
C    21.83000183  30.40999985  50.56999969
C    22.19000053  29.80999947  51.79999924
C    21.21000099  29.28999901  52.62000275
C    19.80999947  29.40999985  52.36000061
C    15.70000076  29.44999886  51.39999771
C    15.05000019  28.77000046  52.45999908
C    13.71000099  28.38999939  52.44999695
C    23.64999962  29.70999908  52.16999817
H    24.09119987  30.18678093  53.04528427
H    19.10000038  28.34000015  54.15000153
H    17.89999962  30.25000000  49.65999985
H    20.20000076  30.96999931  49.33000183
H    22.53999901  30.88999939  49.89999771
H    21.47000122  28.80000114  53.54999924
H    13.28999996  27.78000069  53.23999786
H    24.20000076  30.05000114  51.29000092
H    23.98999977  28.67000198  52.30999756
