96

S    14.88000011  33.69999695  57.05999756
C    17.56999969  33.97000122  56.36000061
C    16.31999969  33.50000000  56.04000092
C    15.97000027  33.04999924  54.72999954
C    16.98999977  32.80999756  53.83999634
C    18.31999969  33.06999969  54.26000214
C    19.37999916  33.02000046  53.30999756
C    20.69999886  33.27000046  53.62999725
C    21.01000023  33.84999847  54.88999939
C    19.97999954  34.18999863  55.75000000
C    18.67000008  33.69999695  55.51000214
C    14.52999973  32.93000031  54.54999924
C    13.81000042  33.38999939  55.68000031
C    12.42000008  33.41999817  55.79999924
C    22.39000130  34.38999939  55.14999771
H    23.02741623  33.71717453  55.72367477
H    17.70000076  34.40999985  57.35000229
H    16.87000084  32.47999954  52.81000137
H    19.15999985  32.83000183  52.27000427
H    21.47999954  33.00000000  52.94000244
H    20.10000038  34.83000183  56.62000275
H    11.96000004  33.70999908  56.72999954
H    22.93999863  34.50999832  54.20999908
H    22.23999977  35.36999893  55.61999893
S    11.30000019  32.07999802  52.23999786
C     8.56999969  32.06000137  52.95999908
C     9.86999989  32.38999939  53.25000000
C    10.24000072  32.97000122  54.51000214
C     9.26999950  33.15999985  55.47000122
C     7.90999985  32.86999893  55.21999741
C     6.88000011  33.06999969  56.18999863
C     5.56999969  32.79999924  55.89000320
C     5.19000006  32.23999786  54.64000320
C     6.19999981  32.02000046  53.72000122
C     7.57000017  32.33000183  53.93000031
C    11.69000053  33.04000092  54.66999817
C    12.39999962  32.63999939  53.50999832
C    13.78000069  32.44999695  53.47000122
C     3.78999996  31.76000214  54.34999847
H     3.26492620  32.53342056  53.78944397
H     8.32999992  31.67000008  51.97000122
H     9.32999992  33.54999924  56.47999573
H     7.13000011  33.50000000  57.15000153
H     4.78999996  33.09000015  56.59000015
H     6.01000023  31.45999908  52.81000137
H    14.26000023  32.29000092  52.50999832
H     3.19000006  31.55999947  55.25000000
H     3.82999992  30.79000092  53.83999634
S    15.50000000  34.40000153  51.20999908
C    18.20999908  34.40999985  50.56000137
C    16.92000008  34.06999969  50.20999908
C    16.59000015  33.61999893  48.88000107
C    17.60000038  33.39999771  47.95999908
C    18.93000031  33.55999756  48.39000320
C    20.03000069  33.22999954  47.55000305
C    21.30000114  33.68999863  47.80000305
C    21.61999893  34.40999985  48.97999573
C    20.59999847  34.59999847  49.88999939
C    19.27000046  34.17000198  49.65000153
C    15.15999985  33.41999817  48.75000000
C    14.44000053  33.93000031  49.86000061
C    13.04999924  34.04000092  49.87999725
C    23.03999901  34.81999969  49.26000214
H    23.60895157  34.22971344  49.97830200
H    18.32999992  35.02000046  51.45000076
H    17.47999954  33.00000000  46.95000076
H    19.71999931  32.93999863  46.55000305
H    22.01999855  33.54000092  46.98999786
H    20.85000038  35.00000000  50.86999893
H    12.58999920  34.61999893  50.66999817
H    23.54000092  34.71999741  48.27999878
H    23.11000061  35.84000015  49.64000320
S    11.95000076  32.33000183  46.42000198
C     9.22999954  32.70999908  46.88000107
C    10.52999973  32.90999985  47.30999756
C    10.93000031  33.44000244  48.57999802
C     9.92999935  33.81000137  49.45999908
C     8.56999969  33.61000061  49.10999680
C     7.53000021  33.69999695  50.07999802
C     6.25000000  33.29999924  49.79000092
C     5.92999983  32.66999817  48.55999756
C     6.94000006  32.47000122  47.63999939
C     8.23000050  33.02000046  47.84000015
C    12.36999989  33.54000092  48.75999832
C    13.04999924  32.97999954  47.65999603
C    14.44000053  32.90999985  47.65999603
C     4.53000021  32.11999893  48.43000031
H     3.98731041  32.75551987  47.73021317
H     9.01000023  32.04000092  46.05999756
H    10.17000008  34.09000015  50.47999954
H     7.78999996  33.91999817  51.11999893
H     5.47999954  33.29999924  50.56000137
H     6.74000025  31.87999916  46.75000000
H    14.92000008  32.62000275  46.72999954
H     3.91000009  32.11000061  49.34000015
H     4.50000000  31.11000061  48.00000000
