96

S    15.15999985  33.56999969  56.88999939
C    17.85000038  33.44000244  56.18999863
C    16.54000092  33.20000076  55.84999847
C    16.14999962  32.65999985  54.58000183
C    17.15999985  32.57999802  53.62999725
C    18.52000046  32.81999969  53.94000244
C    19.52999878  32.95000076  52.94000244
C    20.82999992  33.31000137  53.20999908
C    21.18000031  33.61999893  54.54999924
C    20.23999977  33.65000153  55.54999924
C    18.89999962  33.25999832  55.25000000
C    14.70999908  32.63000107  54.43000031
C    14.04999924  33.16999817  55.56000137
C    12.67000008  33.25000000  55.59999847
C    22.62000084  34.00000000  54.84000397
H    22.99710083  33.45925140  55.70803833
H    18.11000061  33.86000061  57.15999985
H    16.87999916  32.21999741  52.64999771
H    19.17000008  32.85000229  51.91999817
H    21.56999969  33.36999893  52.42000198
H    20.43000031  33.79000092  56.60999680
H    12.10999966  33.68999863  56.42000198
H    23.31000137  33.84000015  54.00000000
H    22.72999954  35.04000092  55.15999603
S    11.47999954  32.09000015  51.97999954
C     8.78999996  32.09000015  52.70999908
C    10.08999920  32.37999725  53.04000092
C    10.50000000  32.85000229  54.34000015
C     9.55999947  33.13000107  55.31000137
C     8.21000004  32.81999969  55.00999832
C     7.25000000  32.97000122  56.04999924
C     5.92999983  32.63000107  55.84999847
C     5.59999990  32.04999924  54.59999847
C     6.46000004  31.94000053  53.53000259
C     7.82999992  32.25000000  53.75000000
C    11.95000076  32.88000107  54.45000076
C    12.61999989  32.55000305  53.25000000
C    14.01000023  32.40999985  53.22999954
C     4.21999979  31.47000122  54.34999847
H     3.86401081  31.87582779  53.40306854
H     8.42000008  31.76000214  51.73999786
H     9.75000000  33.32999802  56.36000061
H     7.50000000  33.45999908  56.98999786
H     5.19000006  32.79999924  56.62000275
H     6.15000010  31.54000092  52.56999969
H    14.48999977  32.04999924  52.32999802
H     3.50000000  31.73000145  55.13999939
H     4.30000019  30.39999962  54.13999939
S    11.65999985  29.93999863  49.36999893
C     9.07999992  29.05999947  50.20000076
C    10.44000053  29.15999985  50.40000153
C    11.00000000  28.67000198  51.62000275
C    10.21000004  27.98000145  52.52999878
C     8.82000065  27.88000107  52.32999802
C     7.92999983  27.34999847  53.31999969
C     6.57000017  27.32999992  53.13999939
C     6.01999998  27.85000038  51.93000031
C     6.81999969  28.43000031  50.97000122
C     8.22000027  28.50000000  51.18000031
C    12.43000031  28.92999840  51.72000122
C    12.93000031  29.56000137  50.54999924
C    14.25000000  29.99000168  50.59000015
C     4.53999996  27.75000000  51.69000244
H     4.10457802  28.18542290  50.79060364
H     8.69999981  29.56999969  49.31999969
H    10.55999947  27.67000008  53.50999832
H     8.31999969  27.04999924  54.27999878
H     5.88999987  26.86000061  53.85000229
H     6.43000031  28.94000053  50.08999634
H    14.51000023  30.66999817  49.78000259
H     4.32000017  26.68000031  51.55000305
H     3.97000027  28.05000114  52.57999802
S    15.85999966  28.19000053  53.79000092
C    18.45999908  29.03000069  53.16999817
C    17.12000084  28.98999977  52.83000183
C    16.57999992  29.70000076  51.70999908
C    17.48999977  30.25000000  50.81999969
C    18.89000130  30.15000153  51.03000259
C    19.78999901  30.85000038  50.19000244
C    21.12999916  30.93000031  50.48999786
C    21.64999962  30.29000092  51.65000153
C    20.78000069  29.63000107  52.50000000
C    19.38999939  29.54000092  52.22999954
C    15.14000034  29.56000137  51.58000183
C    14.61999989  28.81999969  52.68000031
C    13.25000000  28.57999992  52.80000305
C    23.09000015  30.62999916  51.95999908
H    23.41068459  30.06702042  52.83653641
H    18.86000061  28.42000008  53.97999573
H    17.10000038  30.72999954  49.93000031
H    19.31999969  31.40999985  49.38999939
H    21.84999847  31.40999985  49.82999802
H    21.12999916  29.54000092  53.52000427
H    12.84000015  28.18000031  53.72000122
H    23.19999886  31.68000031  52.22999954
H    23.71000099  30.40999985  51.07999802
