96

S    15.18000031  33.23999786  57.21000290
C    17.85000038  33.63999939  56.40999603
C    16.60000038  33.15000153  56.13999939
C    16.21000099  32.84000015  54.79999924
C    17.18000031  32.88000107  53.81000137
C    18.53000069  33.18000031  54.10999680
C    19.56999969  33.15000153  53.13999939
C    20.86999893  33.45000076  53.46000290
C    21.14999962  33.95999908  54.75999832
C    20.15999985  34.20999908  55.68000031
C    18.86000061  33.68000031  55.40999985
C    14.77000046  32.65999985  54.68000031
C    14.06000042  32.90999985  55.87999725
C    12.69000053  33.15999985  55.93999863
C    22.59000015  34.25000000  55.08999634
H    22.91729927  33.72347641  55.98651505
H    18.05999947  34.01000214  57.41000366
H    16.94000053  32.62000275  52.77999878
H    19.26000023  32.75000000  52.18000031
H    21.67000008  33.31999969  52.72999573
H    20.43000031  34.66999817  56.63000107
H    12.17000008  33.38999939  56.86000061
H    23.19999886  34.03000259  54.20999908
H    22.65000153  35.35000229  55.20000076
S    11.36999989  32.04000092  52.37999725
C     8.75000000  32.07999802  53.13999939
C    10.01999950  32.54000092  53.40999985
C    10.51000023  33.09000015  54.64000320
C     9.52000046  33.34000015  55.56999969
C     8.17000008  33.00000000  55.34000015
C     7.17999983  33.20000076  56.33999634
C     5.82000017  33.01000214  56.17000198
C     5.47999954  32.38999939  54.93999863
C     6.38000011  32.04000092  53.95999908
C     7.75000000  32.36999893  54.10999680
C    11.96000004  33.00000000  54.75999832
C    12.58999920  32.52000046  53.57999802
C    13.96999931  32.40000153  53.55999756
C     4.02999973  32.02000046  54.71000290
H     3.58165455  32.53951263  53.86312866
H     8.63000011  31.54000092  52.19999695
H     9.78999996  33.47999954  56.60999680
H     7.63000011  33.51000214  57.28000259
H     5.09999990  33.36000061  56.90000153
H     6.28000021  31.24000168  53.22000122
H    14.42000008  32.34999847  52.56999969
H     3.42000008  32.27999878  55.58000183
H     3.94000006  30.94000053  54.56999969
S    15.59000015  34.13000107  51.24000168
C    18.31999969  34.56000137  50.56000137
C    17.05999947  34.09000015  50.25000000
C    16.68000031  33.70999908  48.93000031
C    17.64999962  33.72000122  47.95000076
C    19.02000046  33.88999939  48.23999786
C    20.05000114  33.68999863  47.28000259
C    21.32999802  34.04999924  47.63999939
C    21.67000008  34.43999863  48.95999908
C    20.68000031  34.65999985  49.88999939
C    19.31999969  34.34999847  49.56999969
C    15.26000023  33.40999985  48.74000168
C    14.51000023  33.72000122  49.89999771
C    13.12000084  33.79000092  50.00999832
C    23.08000183  34.79999924  49.38999939
H    23.50675964  34.04605865  50.05147552
H    18.59000015  34.79000092  51.58000183
H    17.35000038  33.39999771  46.95000076
H    19.79999924  33.38000107  46.26999664
H    22.13999939  34.03000259  46.91999817
H    20.94000053  35.09000015  50.84000015
H    12.65999985  34.11999893  50.93999863
H    23.81000137  35.07999802  48.62999725
H    23.01000214  35.65999985  50.06999969
S    12.03999996  32.63000107  46.38000107
C     9.34000015  32.52000046  47.09000015
C    10.62999916  32.88000107  47.43000031
C    10.95999908  33.38000107  48.73000336
C     9.94000053  33.54999924  49.65000153
C     8.59000015  33.23999786  49.34000015
C     7.53999996  33.51000214  50.27000046
C     6.30000019  32.97000122  50.04000092
C     5.97000027  32.37999725  48.77999878
C     6.97000027  32.22999954  47.85999680
C     8.30999947  32.66999817  48.04999924
C    12.39999962  33.50000000  48.85000229
C    13.12999916  33.13999939  47.68000031
C    14.52000046  33.13999939  47.58999634
C     4.50000000  32.06999969  48.55999756
H     4.16344023  32.65002823  47.70069885
H     9.28999996  31.98999786  46.13999939
H    10.11000061  33.97000122  50.63999939
H     7.77999973  33.90000153  51.25000000
H     5.53999996  32.97999954  50.80999756
H     6.76999998  31.77999878  46.88999939
H    14.85999966  32.77000046  46.63000107
H     3.94000006  32.23999786  49.48999786
H     4.50000000  30.98999977  48.34999847
