96

S    15.47999954  33.84000015  56.90999985
C    18.17000008  33.98999786  56.26999664
C    16.90000153  33.67000198  55.84999847
C    16.51000023  33.15000153  54.56999969
C    17.54999924  32.92000198  53.69999695
C    18.89999962  33.15999985  54.05000305
C    20.02000046  32.92000198  53.20000076
C    21.28999901  33.38999939  53.40999985
C    21.47999954  34.13000107  54.61000061
C    20.43999863  34.45000076  55.45999908
C    19.19000053  33.80000305  55.31000137
C    15.06999969  33.02000046  54.40000153
C    14.39000034  33.32999802  55.59999847
C    13.01000023  33.43000031  55.70999908
C    22.86000061  34.61999893  54.99000168
H    23.33785057  33.89252090  55.64615631
H    18.47999954  34.43000031  57.22000122
H    17.43000031  32.57999802  52.67000198
H    19.77000046  32.50000000  52.22999954
H    22.04999924  33.36000061  52.63000107
H    20.52000046  35.05000305  56.37000275
H    12.55000019  33.69999695  56.65999985
H    23.48999977  34.80999756  54.10999680
H    22.79999924  35.54999924  55.56000137
S    11.78999996  32.63000107  52.04999924
C     9.15999985  32.18000031  52.90999985
C    10.44000053  32.57999802  53.20000076
C    10.80000019  33.04999924  54.51000214
C     9.85999966  33.36000061  55.47999954
C     8.52000046  33.06999969  55.13000107
C     7.46000004  33.32999802  56.04999924
C     6.15999985  32.93000031  55.84000015
C     5.86999989  32.36999893  54.56999969
C     6.81999969  32.06999969  53.61999893
C     8.17000008  32.43999863  53.88000107
C    12.23999977  33.20000076  54.55999756
C    12.94999981  32.90000153  53.36999893
C    14.32999992  32.78000259  53.23999786
C     4.46000004  31.84000015  54.36000061
H     3.91325665  32.40804291  53.60734177
H     8.92000008  31.77999878  51.91999817
H    10.25000000  33.88000107  56.33999634
H     7.76999998  33.75000000  57.00000000
H     5.36999989  33.13000107  56.56000137
H     6.65000010  31.65999985  52.63000107
H    14.91000080  32.57999802  52.34000397
H     4.07000017  31.80999947  55.38999939
H     4.56999969  30.81000137  54.01000214
S    15.90999985  34.48999786  50.90000153
C    18.55999947  34.17000198  50.31000137
C    17.27000046  33.84000015  49.95999908
C    16.94000053  33.44000244  48.62999725
C    17.94000053  33.25999832  47.69000244
C    19.26000023  33.65999985  48.00000000
C    20.29999924  33.59999847  47.02999878
C    21.54999924  33.97999954  47.43999863
C    21.86000061  34.57999802  48.68999863
C    20.88999939  34.54000092  49.65999985
C    19.57999992  34.11000061  49.33000183
C    15.52000046  33.61999893  48.39000320
C    14.85000038  34.18000031  49.51000214
C    13.47000027  34.36000061  49.54999924
C    23.23999786  35.06000137  49.05000305
H    23.77175140  34.30136490  49.62429428
H    18.65999985  34.69000244  51.25999832
H    17.78000069  33.01000214  46.63999939
H    20.13000107  33.23999786  46.02000427
H    22.39000130  33.82999802  46.75000000
H    21.04999924  34.83000183  50.70000076
H    12.89000034  34.43999863  50.45999908
H    23.75000000  35.11000061  48.08000183
H    23.16999817  36.09000015  49.43000031
S    12.20999908  33.13000107  46.00999832
C     9.50000000  32.99000168  46.81000137
C    10.80999947  33.29999924  47.09000015
C    11.26999950  33.80000305  48.34999847
C    10.29999924  34.04999924  49.31000137
C     8.97000027  33.61000061  49.10999680
C     8.03999996  33.59999847  50.19000244
C     6.76000023  33.11999893  50.04000092
C     6.34999990  32.55000305  48.80000305
C     7.20000029  32.61000061  47.71999741
C     8.52999973  33.11000061  47.84000015
C    12.69999981  34.04000092  48.41999817
C    13.38000107  33.54999924  47.27000427
C    14.75999928  33.39999771  47.22999954
C     5.01999950  31.91999817  48.48999786
H     4.43878746  32.44450760  47.73159027
H     9.17000008  32.49000168  45.90000153
H    10.53999996  34.43000031  50.30000305
H     8.43000031  33.95999908  51.13999939
H     6.09000015  33.38000107  50.86000061
H     6.97000027  32.06999969  46.81000137
H    15.21000004  33.20000076  46.25999832
H     4.42999983  31.77999878  49.40000153
H     5.17000008  30.88000107  48.15999985
