96

S    15.50000000  33.75999832  56.90000153
C    18.15000153  33.84999847  56.24000168
C    16.90000153  33.43000031  55.84999847
C    16.55999947  32.78000259  54.61999893
C    17.57999992  32.63999939  53.68999863
C    18.86000061  33.13000107  54.03999710
C    19.96000099  33.06000137  53.13999939
C    21.25000000  33.45999908  53.40999985
C    21.52000046  34.05999756  54.65999985
C    20.51000214  34.20000076  55.59999847
C    19.22000122  33.68000031  55.31999969
C    15.11999989  32.83000183  54.43999863
C    14.42000008  33.34999847  55.54999924
C    13.02999973  33.38000107  55.59999847
C    22.86999893  34.70000076  54.88999939
H    23.43278503  34.12296677  55.62375641
H    18.31999969  34.29000092  57.21000290
H    17.43000031  32.27000046  52.68000031
H    19.75000000  32.79999924  52.11000061
H    22.03000069  33.45000076  52.63999939
H    20.65000153  34.72999954  56.52999878
H    12.63000011  33.81999969  56.51000214
H    23.47999954  34.68000031  53.97999573
H    22.73999977  35.72999954  55.24000168
S    11.92000008  31.90000153  52.09000015
C     9.19000053  31.70000076  52.83000183
C    10.48999977  32.06999969  53.13000107
C    10.85999966  32.72000122  54.34000015
C     9.86999989  33.04999924  55.25000000
C     8.53999996  32.62000275  55.00999832
C     7.42999983  32.93999863  55.84999847
C     6.11999989  32.59000015  55.63999939
C     5.82999992  31.91999817  54.43000031
C     6.80000019  31.76000214  53.46000290
C     8.17000008  32.00999832  53.75999832
C    12.30000019  32.92000198  54.50000000
C    13.01000023  32.50999832  53.34999847
C    14.40000057  32.43999863  53.29999924
C     4.39000034  31.53000069  54.18000031
H     3.89616919  32.20991135  53.48577499
H     8.97000027  31.38999939  51.81999969
H    10.21999931  33.40999985  56.20999908
H     7.63000011  33.52000046  56.75000000
H     5.36000013  32.95999908  56.32999802
H     6.63999987  31.37000084  52.45999908
H    14.96999931  32.00000000  52.49000168
H     3.91999984  31.50000000  55.17000198
H     4.42000008  30.50000000  53.81000137
S    12.53999901  30.15999985  49.36000061
C     9.96000004  29.48999786  50.13000107
C    11.31000042  29.27999878  50.28999710
C    11.84999943  28.59000015  51.42000198
C    10.95999908  28.00000000  52.29000092
C     9.55000019  28.03999901  52.09999847
C     8.64999962  27.29999924  52.90999985
C     7.28999996  27.43000031  52.71999741
C     6.80999994  28.31000137  51.70999908
C     7.64999962  28.95999908  50.84000015
C     9.06000042  28.81999969  51.00000000
C    13.27999973  28.84000015  51.59999847
C    13.76000023  29.69000053  50.56999969
C    15.08999920  30.07999802  50.45999908
C     5.32999992  28.59999847  51.63000107
H     4.95887566  28.16464233  50.70219040
H     9.48000050  30.15999985  49.41999817
H    11.26999950  27.26000023  53.02000046
H     9.02999973  26.68999863  53.72000122
H     6.54999971  26.94999886  53.34999847
H     7.30000019  29.64999962  50.06999969
H    15.42000008  30.72000122  49.65000153
H     4.90999985  28.12999916  52.51999664
H     5.15999985  29.69000053  51.56000137
S    16.69000053  28.45000076  53.73000336
C    19.29000092  29.11999893  52.88000107
C    17.93000031  29.15999985  52.67000198
C    17.38000107  29.70999908  51.47999573
C    18.23999977  30.22999954  50.52000046
C    19.63999939  30.26000023  50.70000076
C    20.56999969  30.88999939  49.81999969
C    21.87000084  31.09999847  50.20000076
C    22.34999847  30.52000046  51.40999603
C    21.55999947  29.70000076  52.16999817
C    20.15999985  29.67000008  51.90999985
C    15.93999958  29.51000023  51.42000198
C    15.43000031  28.81000137  52.54000092
C    14.09000015  28.44000053  52.65999603
C    23.82999802  30.61000061  51.70000076
H    24.17161560  30.06910515  52.58251190
H    19.69000053  28.65999985  53.79000092
H    17.77000046  30.69000053  49.65999985
H    20.19000053  31.32999802  48.89999771
H    22.53000069  31.68000031  49.55999756
H    21.94999886  29.34000015  53.11999893
H    13.76999950  27.89999962  53.54999924
H    24.18000031  31.63000107  51.90000153
H    24.37999916  30.31999969  50.79999924
