96

S    14.88999939  33.84000015  57.36999893
C    17.56000137  33.93000031  56.56999969
C    16.28000069  33.50000000  56.31999969
C    15.93999958  32.81999969  55.10000229
C    16.90999985  32.62000275  54.13999939
C    18.22999954  33.08000183  54.34999847
C    19.29999924  32.95999908  53.41999817
C    20.59000015  33.31999969  53.73000336
C    20.94000053  33.84999847  55.00000000
C    19.90999985  34.11000061  55.87999725
C    18.56999969  33.72000122  55.59999847
C    14.50000000  32.85000229  54.86999893
C    13.83999920  33.38000107  56.00999832
C    12.46999931  33.62999725  55.97000122
C    22.34999847  34.36000061  55.22999573
H    22.90759277  33.80955505  55.98775482
H    17.79999924  34.47000122  57.48000336
H    16.54000092  32.06999969  53.27999878
H    19.15999985  32.47000122  52.45999908
H    21.31000137  33.15999985  52.94000244
H    20.10000038  34.56999969  56.84999847
H    11.92999935  33.81999969  56.88999939
H    22.79999924  34.18000031  54.23999786
H    22.32999992  35.45000076  55.35999680
S    11.40999985  32.49000168  52.29000092
C     8.71000004  32.36999893  52.97000122
C     9.98999977  32.72999954  53.31999969
C    10.34000015  33.15000153  54.64000320
C     9.35999966  33.31999969  55.61000061
C     8.03999996  33.01000214  55.22999573
C     7.00000000  33.04000092  56.19999695
C     5.68000031  32.78000259  55.87999725
C     5.32999992  32.36000061  54.56999969
C     6.32000017  32.16999817  53.63999939
C     7.67000008  32.50999832  53.93000031
C    11.77999973  33.29999924  54.79999924
C    12.48000050  32.80999756  53.67000198
C    13.83999920  32.50999832  53.68999863
C     3.97000027  31.73999977  54.36999893
H     3.47818899  32.14627838  53.48616409
H     8.48999977  31.98999786  51.97999954
H     9.61000061  33.51000214  56.65000153
H     7.20000029  33.47999954  57.16999817
H     4.86000013  32.86999893  56.58000183
H     6.17000008  31.61999893  52.70999908
H    14.22999954  32.23999786  52.70999908
H     3.50000000  31.98999786  55.33000183
H     4.05000019  30.66999817  54.13999939
S    11.79999924  30.39999962  49.34999847
C     9.06999969  30.15999985  50.08999634
C    10.39999962  29.89000130  50.31999969
C    10.85000038  29.15999985  51.45999908
C     9.92999935  28.87000084  52.44999695
C     8.53999996  29.00000000  52.22000122
C     7.59000015  28.44000053  53.11999893
C     6.24000025  28.42000008  52.84999847
C     5.82999992  29.05999947  51.65000153
C     6.71999979  29.61999893  50.77000046
C     8.11999989  29.64999962  51.00999832
C    12.30000019  29.11000061  51.63999939
C    12.92000008  29.89000130  50.63000107
C    14.26000023  30.23999977  50.66999817
C     4.36999989  28.82999802  51.32999802
H     4.04267883  29.04347038  50.31245804
H     8.76000023  30.63999939  49.15999985
H    10.24000072  28.44000053  53.40000153
H     7.86999989  27.82999992  53.97999573
H     5.69000006  27.63000107  53.34999847
H     6.34000015  30.17000008  49.92000198
H    14.75000000  30.82999992  49.88999939
H     4.13000011  27.76000023  51.45999908
H     3.67000008  29.21999931  52.06999969
S    15.52999973  28.55999947  54.02000046
C    18.23999977  29.18999863  53.47000122
C    16.90000153  29.30000114  53.16999817
C    16.48999977  30.00000000  51.98999786
C    17.46000099  30.42000008  51.10000229
C    18.85000038  30.22000122  51.30000305
C    19.78999901  30.62000084  50.31999969
C    21.12999916  30.42000008  50.56000137
C    21.53000069  29.93000031  51.83000183
C    20.62999916  29.60000038  52.81999969
C    19.23999977  29.61000061  52.55000305
C    15.06000042  29.86999893  51.75000000
C    14.42999935  29.04000092  52.71999741
C    13.09999943  28.64000130  52.69000244
C    23.00000000  29.68000031  52.08000183
H    23.49013710  30.19855118  52.90399933
H    18.56999969  28.61999893  54.33000183
H    17.05999947  30.86999893  50.19000244
H    19.31999969  31.07999992  49.45000076
H    21.91999817  30.85000038  49.93999863
H    20.78000069  29.11999893  53.77999878
H    12.67000008  28.12000084  53.54000092
H    23.44000053  29.96999931  51.11000061
H    23.05999947  28.59000015  52.14000320
