96

S    15.44000053  33.54000092  57.15999985
C    18.13999939  33.79000092  56.47999573
C    16.87000084  33.43000031  56.11000061
C    16.50000000  32.85000229  54.86000061
C    17.54999924  32.68000031  53.95999908
C    18.89000130  32.97000122  54.31000137
C    19.95000076  32.83000183  53.36000061
C    21.25000000  33.06000137  53.73000336
C    21.57999992  33.51000214  55.04000092
C    20.55999947  33.88999939  55.87999725
C    19.22000122  33.48999786  55.59999847
C    15.06999969  32.78000259  54.65000153
C    14.35999966  33.23999786  55.79000092
C    12.97999954  33.45000076  55.79999924
C    23.02000046  33.84999847  55.37000275
H    23.47048187  33.26365662  56.17086029
H    18.35000038  34.33000183  57.39999771
H    17.40999985  32.38999939  52.93000031
H    19.64999962  32.56000137  52.35000229
H    21.98999786  32.90999985  52.95000076
H    20.65999985  34.40000153  56.84000015
H    12.51999950  33.87000275  56.69000244
H    23.59000015  33.65000153  54.45000076
H    23.09000015  34.92000198  55.59999847
S    11.82999992  32.09999847  52.25999832
C     9.15999985  32.20999908  52.95999908
C    10.44999981  32.63999939  53.22999954
C    10.80999947  33.25000000  54.47000122
C     9.82999992  33.54999924  55.38999939
C     8.47999954  33.15000153  55.19000244
C     7.42999983  33.27999878  56.13999939
C     6.19000006  32.72000122  55.91999817
C     5.82000017  32.15999985  54.66999817
C     6.84000015  32.04999924  53.75999832
C     8.18000031  32.52000046  53.93000031
C    12.25000000  33.11999893  54.65999985
C    12.94999981  32.56000137  53.55999756
C    14.32999992  32.40999985  53.50999832
C     4.39000034  31.77999878  54.34999847
H     4.11246490  32.37776947  53.48181534
H     8.89000034  31.68999863  52.04999924
H    10.07999992  33.90000153  56.38999939
H     7.55999994  33.88999939  57.02999878
H     5.45000029  32.72999954  56.72000122
H     6.48999977  31.45000076  52.91999817
H    14.80000019  32.13999939  52.57999802
H     3.84000015  32.11999893  55.24000168
H     4.35999966  30.69999886  54.20999908
S    12.42000008  29.93000031  49.33000183
C     9.68000031  29.84000015  50.01999664
C    11.00000000  29.63999939  50.34999847
C    11.40999985  29.03000069  51.58000183
C    10.44000053  28.44000053  52.36000061
C     9.06000042  28.64000130  52.11000061
C     8.01000023  28.08000183  52.88999939
C     6.69000053  28.26000023  52.56000137
C     6.32999992  28.95999908  51.37000275
C     7.31999969  29.37999916  50.52000046
C     8.69000053  29.31999969  50.90000153
C    12.84999943  29.11000061  51.81999969
C    13.53000069  29.60000038  50.68000031
C    14.81999969  30.12000084  50.68999863
C     4.88000011  29.37000084  51.22000122
H     4.32918692  28.83349419  50.44742966
H     9.31999969  30.29999924  49.09999847
H    10.80999947  27.85000038  53.18999863
H     8.31999969  27.53999901  53.77999878
H     5.92999983  28.02999878  53.30999756
H     7.13999987  30.00000000  49.64000320
H    15.31000042  30.52999878  49.80999756
H     4.50000000  29.36000061  52.25000000
H     4.88999987  30.43000031  50.90999985
S    16.21000099  28.85000038  54.16999817
C    18.86000061  29.01000023  53.29999924
C    17.53000069  29.27000046  53.06000137
C    17.02000046  29.86000061  51.86000061
C    17.94999886  30.20000076  50.90000153
C    19.32999992  30.05000114  51.16000366
C    20.32999992  30.50000000  50.24000168
C    21.67000008  30.52999878  50.56000137
C    22.15999985  29.92000198  51.73999786
C    21.24000168  29.43000031  52.63000107
C    19.84000015  29.47999954  52.37999725
C    15.57000065  29.73999977  51.81000137
C    14.94999981  29.17000008  52.95000076
C    13.60000038  28.84000015  52.97000122
C    23.64000130  29.75000000  52.01000214
H    23.96022606  29.82827759  53.04895782
H    19.36000061  28.75000000  54.22999954
H    17.60000038  30.55999947  49.93000031
H    19.92000008  30.88000107  49.31000137
H    22.37999916  30.86999893  49.79999924
H    21.54999924  28.97000122  53.55999756
H    13.17999935  28.39999962  53.87000275
H    24.25000000  30.34000015  51.31999969
H    23.88999939  28.69999886  51.81000137
