96

S    15.52999973  34.04000092  57.08000183
C    18.23999977  34.11999893  56.39999771
C    16.95000076  33.84000015  56.04000092
C    16.57999992  33.38999939  54.72999954
C    17.60000038  33.15999985  53.81000137
C    18.95000076  33.40999985  54.13000107
C    19.96000099  33.36000061  53.13000107
C    21.25000000  33.72999954  53.44999695
C    21.59000015  34.13000107  54.75999832
C    20.63999939  34.18000031  55.75000000
C    19.27999878  33.87000275  55.45999908
C    15.14999962  33.15999985  54.59000015
C    14.45000076  33.56999969  55.75000000
C    13.05999947  33.61000061  55.73999786
C    23.02999878  34.54000092  55.00000000
H    23.44085693  34.02997208  55.87129974
H    18.40999985  34.71999741  57.29000092
H    17.25000000  33.01000214  52.80000305
H    19.52999878  33.31000137  52.12999725
H    21.91999817  33.68999863  52.58999634
H    20.95000076  34.43999863  56.76000214
H    12.51999950  33.86000061  56.63999939
H    23.71000099  34.45000076  54.13999939
H    22.93999863  35.61999893  55.15999603
S    11.89000034  32.29999924  52.16999817
C     9.17000008  32.56999969  52.78999710
C    10.48999977  32.73999786  53.15000153
C    10.86999989  33.11999893  54.47999954
C     9.85000038  33.45000076  55.35999680
C     8.48999977  33.18000031  55.07999802
C     7.50999975  33.22000122  56.11000061
C     6.17999983  32.97000122  55.84999847
C     5.79999971  32.47000122  54.58000183
C     6.76999998  32.38999939  53.60000229
C     8.14000034  32.77000046  53.75000000
C    12.31999969  33.20999908  54.61999893
C    13.01000023  32.79999924  53.44999695
C    14.40000057  32.75000000  53.47999954
C     4.41000032  31.97000122  54.23999786
H     3.94669962  32.46181107  53.38467789
H     8.93999958  32.09000015  51.84999847
H    10.11999989  33.75999832  56.37000275
H     7.77999973  33.40999985  57.14000320
H     5.40000010  32.95000076  56.60999680
H     6.54999971  32.06999969  52.58999634
H    14.98000050  32.49000168  52.60000229
H     3.75999975  32.09000015  55.12000275
H     4.51000023  30.89999962  54.03999710
S    11.52999973  30.20000076  49.29000092
C     8.89000034  29.76000023  50.00999832
C    10.21999931  29.60000038  50.33000183
C    10.62999916  29.03000069  51.56999969
C     9.65999985  28.47999954  52.38999939
C     8.28999996  28.62999916  52.09999847
C     7.26999998  28.19000053  53.01000214
C     5.96000004  28.15000153  52.61000061
C     5.55999994  28.74000168  51.37000275
C     6.48999977  29.37000084  50.58000183
C     7.88000011  29.25000000  50.86999893
C    12.07999992  29.07999992  51.65999985
C    12.68000031  29.70000076  50.54000092
C    14.02999973  30.03000069  50.63000107
C     4.13999987  28.75999832  50.87999725
H     3.99108052  28.16432190  49.97938919
H     8.63000011  30.30999947  49.10999680
H     9.85999966  27.79999924  53.22000122
H     7.57999992  27.93999863  54.02000046
H     5.19999981  27.70999908  53.23999786
H     6.32999992  29.86000061  49.62999725
H    14.42000008  30.69000053  49.86000061
H     3.45000005  28.26999855  51.56999969
H     3.77999997  29.79000092  50.76000214
S    15.43000031  28.38999939  53.97999573
C    18.04999924  29.34000015  53.48999786
C    16.69999886  29.34999847  53.20000076
C    16.20000076  30.05000114  52.05999756
C    17.12000084  30.76000023  51.31999969
C    18.52000046  30.69999886  51.52000046
C    19.52999878  31.15999985  50.63000107
C    20.86999893  30.90999985  50.77999878
C    21.31000137  30.17000008  51.90999985
C    20.39999962  29.79999924  52.88000107
C    19.01000023  30.03999901  52.70000076
C    14.80999947  29.75000000  51.76000214
C    14.22999954  29.04000092  52.84000015
C    12.89000034  28.68999863  52.74000168
C    22.75000000  29.72999954  52.02999878
H    23.24070930  30.23493195  52.86207199
H    18.38000107  28.61999893  54.22000122
H    16.79999924  31.24000168  50.38999939
H    19.10000038  31.63000107  49.75000000
H    21.59000015  31.17000198  50.00000000
H    20.73999786  29.20999908  53.72000122
H    12.48999977  28.02000046  53.50000000
H    23.15000153  29.93000031  51.03000259
H    22.75000000  28.64000130  52.16999817
