96

S    15.38000011  33.79000092  57.34000397
C    18.09999847  33.87000275  56.62000275
C    16.81999969  33.44000244  56.36000061
C    16.52000046  33.02999878  55.01999664
C    17.56999969  32.86000061  54.13999939
C    18.92000008  33.13000107  54.47999954
C    19.90999985  33.06999969  53.46000290
C    21.17000198  33.51000214  53.77999878
C    21.47999954  33.97999954  55.07999802
C    20.55000114  34.04999924  56.07999802
C    19.22999954  33.59000015  55.79999924
C    15.07999992  32.90999985  54.84000397
C    14.34999943  33.22000122  56.02000427
C    12.97000027  33.38000107  56.04999924
C    22.86000061  34.59000015  55.19000244
H    23.47868156  34.09220886  55.93668747
H    18.15000153  34.50000000  57.50999832
H    17.39999962  32.36999893  53.18999863
H    19.65999985  32.72999954  52.45999908
H    21.94999886  33.48999786  53.01000214
H    20.76999855  34.59000015  56.98999786
H    12.48000050  33.69999695  56.95999908
H    23.31000137  34.56000137  54.19000244
H    22.84000015  35.63999939  55.52999878
S    11.90000057  32.30999756  52.34000397
C     9.19999981  32.20999908  53.01000214
C    10.47000027  32.62000275  53.34000015
C    10.80000019  33.06999969  54.65000153
C     9.77999973  33.29000092  55.56000137
C     8.43000031  33.00000000  55.24000168
C     7.30999994  33.22000122  56.07999802
C     6.01000023  33.06000137  55.65000153
C     5.73999977  32.43999863  54.40999985
C     6.80000019  32.20999908  53.55999756
C     8.15999985  32.40000153  53.95999908
C    12.23999977  33.22999954  54.86000061
C    12.93000031  32.77000046  53.70999908
C    14.30999947  32.57999802  53.72000122
C     4.30000019  32.04999924  54.15000153
H     3.80177617  32.64075089  53.38131332
H     9.07999992  31.68999863  52.05999756
H    10.15999985  33.65000153  56.51000214
H     7.36999989  33.46999741  57.14000320
H     5.15999985  33.31000137  56.27999878
H     6.57000017  31.97000122  52.52999878
H    14.85000038  32.31999969  52.81999969
H     3.71000004  32.15999985  55.06000137
H     4.23000002  30.95999908  54.01000214
S    12.09000015  30.27000046  49.52000046
C     9.39000034  29.67000008  50.17000198
C    10.73999977  29.54000092  50.40000153
C    11.21000099  28.95000076  51.60999680
C    10.27999973  28.46999931  52.51999664
C     8.88000011  28.50000000  52.29999924
C     7.90000010  28.05000114  53.23999786
C     6.58999968  28.19999886  52.87000275
C     6.11000013  28.81999969  51.69000244
C     7.05999947  29.27999878  50.80999756
C     8.45000076  29.17000008  51.11000061
C    12.65999985  28.94000053  51.76000214
C    13.25000000  29.73999977  50.75000000
C    14.60000038  30.06000137  50.77000046
C     4.65999985  29.11999893  51.38000107
H     4.31959867  28.70868301  50.42971420
H     9.01000023  30.27000046  49.34000015
H    10.54999924  27.80999947  53.34000015
H     8.14999962  27.60999870  54.20000076
H     5.86999989  27.85000038  53.61000061
H     6.75000000  29.80999947  49.91000366
H    14.96000099  30.71000099  49.98000336
H     4.05999994  28.87000084  52.25999832
H     4.59000015  30.20999908  51.43000031
S    16.00000000  28.31999969  54.06000137
C    18.70000076  28.88999939  53.29999924
C    17.34000015  28.98999977  53.11999893
C    16.79999924  29.77000046  52.04000092
C    17.68000031  30.26000023  51.10000229
C    19.07999992  30.19000053  51.29000092
C    20.03000069  30.86000061  50.47000122
C    21.38999939  30.69999886  50.61999893
C    21.90000153  30.09000015  51.79999924
C    21.02999878  29.47000122  52.65999603
C    19.63000107  29.44999886  52.39999771
C    15.36000061  29.61000061  51.84999847
C    14.78000069  28.81000137  52.87000275
C    13.43999958  28.43000031  52.80000305
C    23.40999985  30.10999870  51.90999985
H    23.63038826  30.38726234  52.94084930
H    19.06999969  28.36000061  54.18000031
H    17.29999924  30.79000092  50.22999573
H    19.71999931  31.32999802  49.54000092
H    22.09000015  30.88999939  49.81999969
H    21.35000038  28.94000053  53.55999756
H    13.00000000  27.76000023  53.54000092
H    23.81999969  30.81000137  51.17000198
H    23.90000153  29.15999985  51.65999985
