96

S    15.39999962  33.68999863  57.18000031
C    18.04999924  33.86000061  56.44000244
C    16.79999924  33.38999939  56.12999725
C    16.42000008  32.79999924  54.87999725
C    17.35000038  32.75000000  53.85000229
C    18.68999863  33.09999847  54.13999939
C    19.75000000  32.90999985  53.20999908
C    21.07000160  33.22000122  53.46000290
C    21.28999901  33.97999954  54.64000320
C    20.31999969  34.20999908  55.58000183
C    19.00000000  33.72999954  55.38999939
C    14.98000050  32.72999954  54.73999786
C    14.28999996  33.06999969  55.93999863
C    12.90999985  33.25999832  56.00999832
C    22.72000122  34.38000107  54.94999695
H    23.13966370  33.66159439  55.65417862
H    18.27999878  34.27000046  57.42000198
H    17.12000084  32.29000092  52.88999939
H    19.60000038  32.33000183  52.29999924
H    21.81999969  32.86000061  52.77000046
H    20.66999817  34.61000061  56.52999878
H    12.55000019  33.56999969  56.97999954
H    23.19000053  34.41999817  53.95999908
H    22.77000046  35.36999893  55.40000153
S    11.72999954  32.13999939  52.36999893
C     9.03999996  31.98999786  53.06999969
C    10.31999969  32.34999847  53.43000031
C    10.67000008  32.93000031  54.68999863
C     9.64999962  33.11999893  55.59999847
C     8.34000015  32.69000244  55.30000305
C     7.23999977  32.95999908  56.17000198
C     5.92000008  32.83000183  55.84000015
C     5.59999990  32.22999954  54.59999847
C     6.61999989  31.90999985  53.73000336
C     7.99000025  32.19000244  54.00000000
C    12.10999966  32.93999863  54.89999771
C    12.79999924  32.56999969  53.72000122
C    14.18000031  32.52999878  53.61000061
C     4.15999985  31.88999939  54.29000092
H     3.69160199  32.50743484  53.52352905
H     8.90999985  31.44000053  52.14000320
H     9.90999985  33.61999893  56.52999878
H     7.48000050  33.29000092  57.18000031
H     5.19000006  33.01000214  56.63000107
H     6.32000017  31.55999947  52.75000000
H    14.68999958  32.27999878  52.68000031
H     3.54999995  31.98999786  55.20000076
H     3.95000005  30.84000015  54.02000046
S    12.28000069  30.19000053  49.38000107
C     9.61999989  29.63999939  50.04000092
C    10.95999908  29.50000000  50.34000015
C    11.42000008  28.90999985  51.56000137
C    10.47000027  28.39999962  52.42000198
C     9.09000015  28.47999954  52.12999725
C     8.14000034  27.88000107  53.00000000
C     6.78999996  28.02999878  52.83000183
C     6.32999992  28.64000130  51.63000107
C     7.23000002  29.13000107  50.70999908
C     8.63000011  29.13000107  50.91999817
C    12.84999943  29.11999893  51.72000122
C    13.43000031  29.94999886  50.72000122
C    14.80000019  30.19000053  50.70000076
C     4.82999992  28.71999931  51.44000244
H     4.48281622  28.23819351  50.52598572
H     9.35999966  30.20999908  49.15000153
H    10.80000019  27.86999893  53.30999756
H     8.56000042  27.36999893  53.86000061
H     6.15000010  27.72000122  53.64999771
H     6.88000011  29.61999893  49.80999756
H    15.31999969  30.65999985  49.86999893
H     4.19000006  28.38999939  52.25999832
H     4.63999987  29.79000092  51.31999969
S    16.13999939  28.54999924  54.02999878
C    18.88000107  28.90999985  53.27999878
C    17.53000069  29.04999924  53.04999924
C    17.02999878  29.72999954  51.90000153
C    17.90999985  30.23999977  50.96000290
C    19.29000092  30.13000107  51.19999695
C    20.26000023  30.65000153  50.28999710
C    21.60000038  30.59999847  50.56999969
C    22.04999924  30.10999870  51.81999969
C    21.19999886  29.51000023  52.72999573
C    19.80999947  29.54000092  52.41000366
C    15.57999992  29.71999931  51.76000214
C    14.93000031  29.02000046  52.81000137
C    13.61999989  28.55999947  52.75000000
C    23.45000076  30.51000214  52.21000290
H    23.86280632  29.96196556  53.05696487
H    19.17000008  28.25000000  54.09999847
H    17.51000023  30.69999886  50.05000305
H    19.80999947  31.18000031  49.45999908
H    22.29000092  31.18999863  49.97000122
H    21.56999969  29.20000076  53.69999695
H    13.28999996  27.86999893  53.52000427
H    23.57000160  31.57999992  52.41000366
H    24.11000061  30.38999939  51.33999634
