96

S    15.34000015  33.84000015  57.04999924
C    18.06999969  33.54999924  56.46999741
C    16.76000023  33.31999969  56.11999893
C    16.38000107  32.70999908  54.87999725
C    17.38999939  32.38999939  53.99000168
C    18.75000000  32.69000244  54.25000000
C    19.78999901  32.57999802  53.27999878
C    21.05999947  33.02999878  53.60000229
C    21.40000153  33.51000214  54.88999939
C    20.39999962  33.74000168  55.79999924
C    19.06999969  33.31999969  55.50000000
C    14.93999958  32.69000244  54.69999695
C    14.23999977  33.22000122  55.80999756
C    12.84999943  33.27999878  55.89000320
C    22.80999947  34.01000214  55.12000275
H    23.31995392  33.44338226  55.89909744
H    18.27000046  33.98999786  57.43999863
H    17.19000053  32.06999969  52.97000122
H    19.57999992  32.20999908  52.28000259
H    21.78999901  33.11999893  52.80000305
H    20.59999847  34.25000000  56.73999786
H    12.41000080  33.62999725  56.81999969
H    23.31000137  33.77000046  54.18000031
H    22.78000069  35.09999847  55.24000168
S    11.73999977  31.84999847  52.37999725
C     9.00000000  31.86000061  53.00000000
C    10.27999973  32.23999786  53.29999924
C    10.65999985  32.72999954  54.59999847
C     9.64999962  32.93999863  55.52999878
C     8.30999947  32.65000153  55.20999908
C     7.23000002  32.86000061  56.11999893
C     5.92000008  32.52999878  55.84000015
C     5.66999960  31.81999969  54.64000320
C     6.63999987  31.61000061  53.68999863
C     7.99000025  31.94000053  53.99000168
C    12.09000015  32.84000015  54.79999924
C    12.82999992  32.29000092  53.72000122
C    14.21000004  32.15999985  53.61999893
C     4.26000023  31.38999939  54.31000137
H     3.75795484  31.95568657  53.52511215
H     8.85999966  31.35999870  52.04999924
H     9.94999981  33.27999878  56.52000046
H     7.50000000  33.31999969  57.05999756
H     5.19000006  32.88999939  56.56000137
H     6.46000004  31.28000069  52.67000198
H    14.61999989  31.86000061  52.65999603
H     3.67000008  31.54999924  55.21999741
H     4.15000010  30.31999969  54.13000107
S    12.15000057  30.12000084  49.33000183
C     9.47000027  29.54999924  50.00999832
C    10.80999947  29.48999786  50.31000137
C    11.28000069  28.80000114  51.47999573
C    10.36000061  28.32999992  52.38999939
C     8.97999954  28.52000046  52.18999863
C     7.96999979  28.05000114  53.08000183
C     6.63000011  28.11000061  52.81000137
C     6.17999983  28.69999886  51.59999847
C     7.11000013  29.21999931  50.72000122
C     8.51000023  29.07999992  50.93999863
C    12.72999954  28.88999939  51.65000153
C    13.28999996  29.63999939  50.59000015
C    14.68000031  29.77000046  50.58000183
C     4.74000025  29.13999939  51.50000000
H     4.27816010  28.58579254  50.68289566
H     9.15999985  30.10000038  49.13000107
H    10.76000023  27.88999939  53.30999756
H     8.23999977  27.53999901  54.00000000
H     5.93999958  27.90999985  53.62999725
H     6.76000023  29.82000160  49.88999939
H    15.17000008  30.32999992  49.79000092
H     4.28000021  29.01000023  52.49000168
H     4.67000008  30.22000122  51.30000305
S    16.10999870  28.34000015  53.93000031
C    18.78999901  28.81000137  53.18000031
C    17.43999863  28.90999985  52.90000153
C    16.94000053  29.51000023  51.70000076
C    17.82999992  30.19000053  50.89000320
C    19.22000122  30.00999832  51.03000259
C    20.13999939  30.59000015  50.11000061
C    21.47999954  30.76000023  50.37000275
C    21.94000053  30.02000046  51.49000168
C    21.09000015  29.37000084  52.36000061
C    19.67000008  29.40999985  52.25999832
C    15.51000023  29.27000046  51.59000015
C    14.86999989  28.65999985  52.70000076
C    13.53000069  28.29999924  52.63999939
C    23.38999939  30.20000076  51.90000153
H    23.69536972  29.64607239  52.78770447
H    19.12999916  28.42000008  54.13999939
H    17.53000069  30.75000000  50.00000000
H    19.70999908  31.27000046  49.36999893
H    22.20999908  31.40000153  49.88999939
H    21.51000023  28.95999908  53.27999878
H    13.04999924  27.70999908  53.41999817
H    23.57999992  31.25999832  52.08000183
H    24.01000023  29.89000130  51.05999756
