96

S    15.60999966  33.77999878  57.37999725
C    18.35000038  34.00000000  56.56999969
C    17.02999878  33.68000031  56.32999802
C    16.61000061  33.38000107  55.00000000
C    17.53999901  33.29000092  53.96999741
C    18.92000008  33.51000214  54.19000244
C    19.96999931  33.25000000  53.26000214
C    21.28000069  33.44000244  53.62999725
C    21.68999863  34.13000107  54.79999924
C    20.65000153  34.34999847  55.66999817
C    19.29999924  33.90999985  55.52000046
C    15.18000031  33.15000153  54.89999771
C    14.45000076  33.48999786  56.06999969
C    13.07000065  33.61999893  56.14999771
C    23.15000153  34.38999939  55.10000229
H    23.40456390  33.94451141  56.06168747
H    18.56999969  34.27000046  57.60000229
H    17.23999977  32.80999756  53.04999924
H    19.77000046  33.00000000  52.22000122
H    22.09000015  33.36000061  52.90999985
H    20.94000053  34.77000046  56.63000107
H    12.50000000  33.98999786  57.00000000
H    23.84000015  34.06999969  54.31000137
H    23.29000092  35.47000122  55.24000168
S    11.95000076  32.29999924  52.55000305
C     9.30999947  32.13000107  53.25000000
C    10.57999992  32.47000122  53.66000366
C    10.90000057  33.04999924  54.93000031
C     9.85000038  33.15999985  55.83000183
C     8.52999973  32.76000214  55.52000046
C     7.44999981  33.09999847  56.38000107
C     6.15999985  32.75000000  56.06999969
C     5.86999989  32.09999847  54.84000397
C     6.90999985  31.90999985  53.95000076
C     8.27000046  32.19000244  54.22000122
C    12.35000038  33.15000153  55.04000092
C    13.04999924  32.79999924  53.86000061
C    14.42999935  32.73999786  53.79000092
C     4.51000023  31.54999924  54.47999954
H     4.01687050  32.12174225  53.69384766
H     9.15000057  31.77000046  52.23999786
H    10.06000042  33.68000031  56.77000046
H     7.69999981  33.48999786  57.36999893
H     5.42000008  32.76000214  56.86999893
H     6.75000000  31.61000061  52.90999985
H    14.98000050  32.29999924  52.95000076
H     3.84000015  31.57999992  55.34999847
H     4.61000013  30.48000145  54.25000000
S    15.47000027  34.27999878  51.22000122
C    18.13999939  34.29999924  50.56999969
C    16.87999916  33.88999939  50.21999741
C    16.53000069  33.27999878  48.96999741
C    17.56000137  33.27000046  48.04999924
C    18.89000130  33.68000031  48.29999924
C    19.88999939  33.65999985  47.29000092
C    21.15999985  34.09000015  47.58999634
C    21.47999954  34.54999924  48.89999771
C    20.51000214  34.61000061  49.87999725
C    19.19000053  34.13999939  49.62999725
C    15.07999992  33.23999786  48.83999634
C    14.35999966  33.84000015  49.91000366
C    13.00000000  34.15000153  49.80999756
C    22.88999939  34.99000168  49.20999908
H    23.47225761  34.15211868  49.59343719
H    18.30000114  34.75000000  51.55000305
H    17.34000015  32.85000229  47.06999969
H    19.67000008  33.39999771  46.25000000
H    21.91999817  34.15000153  46.81999969
H    20.75000000  34.93999863  50.87999725
H    12.46000099  34.59000015  50.63999939
H    23.36000061  35.52999878  48.37999725
H    22.79000092  35.79000092  49.94999695
S    11.95000076  32.47999954  46.33999634
C     9.25000000  32.59999847  46.97000122
C    10.52999973  33.01000214  47.25999832
C    10.86999989  33.65000153  48.48999786
C     9.86999989  33.88999939  49.41999817
C     8.55000019  33.44000244  49.15999985
C     7.57999992  33.43000031  50.20000076
C     6.28000021  33.06000137  49.94999695
C     5.92000008  32.43999863  48.72000122
C     6.89000034  32.30999756  47.75000000
C     8.23000050  32.73999786  47.95000076
C    12.30999947  33.74000168  48.66000366
C    13.01000023  33.04999924  47.63999939
C    14.40000057  32.90999985  47.67000198
C     4.51999998  32.06999969  48.27999878
H     4.19931602  32.63298035  47.40346146
H     8.90999985  32.23999786  46.00000000
H    10.11000061  34.01000214  50.47000122
H     7.83999968  33.81000137  51.18000031
H     5.61999989  33.15000153  50.80999756
H     6.54999971  32.04000092  46.75000000
H    14.85000038  32.65999985  46.70999908
H     3.91999984  32.29999924  49.15999985
H     4.38000011  30.97999954  48.22999954
