96

S    14.75999928  33.61000061  57.37999725
C    17.51000023  33.45000076  56.76000214
C    16.18999863  33.31000137  56.38000107
C    15.84000015  33.09000015  55.00999832
C    16.75000000  32.84000015  54.00000000
C    18.11000061  32.97999954  54.34999847
C    19.14999962  32.92000198  53.37999725
C    20.43000031  33.23999786  53.75000000
C    20.79999924  33.68999863  55.05000305
C    19.81999969  33.55999756  56.00999832
C    18.45000076  33.27000046  55.70999908
C    14.40000057  33.08000183  54.79000092
C    13.68999958  33.29000092  56.00000000
C    12.30000019  33.32999802  55.98999786
C    22.21999931  34.05999756  55.38000107
H    22.68630981  33.39586258  56.10772324
H    17.85000038  33.90000153  57.68000031
H    16.46000099  32.49000168  53.01000214
H    18.89999962  32.54000092  52.38999939
H    21.24000168  32.97000122  53.08000183
H    20.10999870  33.61999893  57.04999924
H    11.72999954  33.55999756  56.88000107
H    22.79000092  34.02000046  54.43999863
H    22.20999908  35.11000061  55.68999863
S    11.26000023  32.20999908  52.29999924
C     8.57999992  31.97000122  52.97999954
C     9.85999966  32.23999786  53.40000153
C    10.18000031  32.72999954  54.71000290
C     9.11000061  32.83000183  55.58000183
C     7.76000023  32.73999786  55.15999603
C     6.76000023  32.80999756  56.17000198
C     5.51000023  32.34999847  55.79999924
C     5.19999981  32.06999969  54.43999863
C     6.15999985  31.93000031  53.46000290
C     7.49000025  32.27999878  53.81999969
C    11.61000061  32.95999908  54.82999802
C    12.32999992  32.69000244  53.63999939
C    13.71999931  32.72000122  53.61999893
C     3.76999998  31.81999969  54.02999878
H     3.47056055  32.45452499  53.19584656
H     8.30999947  31.37000084  52.11999893
H     9.32999992  33.13999939  56.59000015
H     6.94000006  33.15999985  57.18000031
H     4.69999981  32.29999924  56.52000046
H     5.93999958  31.63999939  52.43999863
H    14.28999996  32.50000000  52.71999741
H     3.17999983  32.09999847  54.91000366
H     3.63999987  30.73999786  53.89999771
S    15.55999947  34.27999878  51.31000137
C    18.26000023  34.24000168  50.68999863
C    16.97999954  33.90999985  50.31000137
C    16.63999939  33.38000107  49.02999878
C    17.67000008  33.20999908  48.11999893
C    18.98999977  33.58000183  48.44999695
C    20.06999969  33.36999893  47.55000305
C    21.35000038  33.56999969  47.98999786
C    21.67000008  34.22999954  49.20999908
C    20.63999939  34.54000092  50.06999969
C    19.32999992  34.10000229  49.75999832
C    15.19000053  33.38000107  48.88999939
C    14.46000004  33.95999908  49.95999908
C    13.07000065  34.03000259  49.95999908
C    23.05000114  34.79999924  49.43000031
H    23.58374596  34.19509125  50.16300964
H    18.38999939  34.80999756  51.59999847
H    17.39999962  33.09999847  47.06999969
H    19.85999870  32.93999863  46.56999969
H    22.17000008  33.31999969  47.32999802
H    20.93000031  35.06999969  50.97000122
H    12.61000061  34.31000137  50.90000153
H    23.54999924  34.90000153  48.44999695
H    22.88000107  35.79000092  49.86000061
S    12.15000057  32.70000076  46.32999802
C     9.46000004  32.34999847  47.04000092
C    10.69000053  32.90000153  47.31999969
C    10.93000031  33.54000092  48.57999802
C     9.89999962  33.69999695  49.47999954
C     8.60999966  33.22000122  49.18000031
C     7.53999996  33.34000015  50.11000061
C     6.26999950  32.97999954  49.73999786
C     6.00000000  32.37999725  48.47999954
C     7.04999971  32.11999893  47.63000107
C     8.38000011  32.50999832  47.95000076
C    12.35999966  33.68999863  48.80000305
C    13.14000034  33.18999863  47.71999741
C    14.50000000  32.92000198  47.76000214
C     4.56999969  31.97000122  48.22000122
H     3.99414420  32.60272980  47.54461670
H     9.23999977  31.78999901  46.13999939
H    10.11000061  34.08000183  50.47999954
H     7.69999981  33.75000000  51.11000061
H     5.45000029  33.04000092  50.45999908
H     6.80999994  31.75000000  46.63000107
H    14.93999958  32.47000122  46.88000107
H     4.07999992  31.86000061  49.19000244
H     4.67999983  30.95999908  47.80000305
