96

S    15.67000008  33.97000122  56.86999893
C    18.35000038  34.03000259  56.20999908
C    17.09000015  33.59000015  55.87999725
C    16.77000046  33.09000015  54.58000183
C    17.80999947  32.95999908  53.68000031
C    19.11999893  33.32999802  54.03999710
C    20.17999840  33.31000137  53.08000183
C    21.47000122  33.59999847  53.46000290
C    21.80000114  33.98999786  54.78000259
C    20.79999924  34.15999985  55.70999908
C    19.45000076  33.90000153  55.31999969
C    15.31999969  32.97000122  54.43000031
C    14.60000038  33.45000076  55.54999924
C    13.22000027  33.61999893  55.59000015
C    23.22000122  34.38999939  55.11000061
H    23.61061478  33.72950363  55.88412476
H    18.55999947  34.40999985  57.21000290
H    17.63000107  32.72999954  52.63000107
H    19.82999992  32.90000153  52.12999725
H    22.21999931  33.43000031  52.70000076
H    21.04000092  34.52000046  56.70000076
H    12.74000072  33.97999954  56.49000168
H    23.78000069  34.27000046  54.18000031
H    23.15000153  35.45000076  55.38000107
S    12.11999989  32.25000000  52.06999969
C     9.35999966  32.21999741  52.72999573
C    10.67000008  32.47999954  53.06000137
C    11.05999947  33.13999939  54.27000046
C    10.05000019  33.46999741  55.14999771
C     8.71000004  33.09999847  54.88999939
C     7.65999985  33.31000137  55.83000183
C     6.37000036  32.90000153  55.59000015
C     6.01999998  32.26000214  54.36999893
C     6.96000004  32.13000107  53.37999725
C     8.30999947  32.49000168  53.64999771
C    12.50000000  33.16999817  54.47999954
C    13.22999954  32.63000107  53.39000320
C    14.61999989  32.50999832  53.30999756
C     4.61999989  31.76000214  54.09000015
H     4.07267475  32.33575821  53.34364700
H     9.09000015  31.70999908  51.81000137
H    10.21000004  33.80000305  56.17000198
H     7.85000038  33.62999725  56.84999847
H     5.55000019  33.01000214  56.30000305
H     6.76999998  31.84000015  52.35000229
H    15.13000011  32.00999832  52.49000168
H     4.11000013  31.88999939  55.05000305
H     4.55000019  30.72000122  53.74000168
S    12.17000008  30.31999969  49.16999817
C     9.48000050  29.99000168  49.91000366
C    10.80999947  29.71999931  50.14999771
C    11.26999950  29.01000023  51.30000305
C    10.31000042  28.54999924  52.18999863
C     8.92000008  28.64999962  51.91999817
C     7.90000010  28.21000099  52.81000137
C     6.57000017  28.40999985  52.54000092
C     6.17999983  29.17000008  51.40999603
C     7.13999987  29.61999893  50.52999878
C     8.52000046  29.37999916  50.76000214
C    12.71000004  29.01000023  51.49000168
C    13.27999973  29.77999878  50.44000244
C    14.60000038  30.20999908  50.54000092
C     4.73000002  29.60000038  51.29000092
H     4.20186234  29.11468506  50.46924591
H     9.18000031  30.62000084  49.08000183
H    10.77000046  28.11000061  53.06999969
H     8.17000008  27.80999947  53.79000092
H     5.86000013  28.13999939  53.33000183
H     6.80999994  30.26000023  49.71000290
H    15.01000023  30.72000122  49.68000031
H     4.21999979  29.15999985  52.15999985
H     4.73000002  30.69000053  51.27999878
S    15.98999977  28.69999886  53.95000076
C    18.65999985  29.27000046  53.20000076
C    17.29999924  29.43000031  53.00000000
C    16.80999947  29.97999954  51.77000046
C    17.71999931  30.45000076  50.84000015
C    19.11000061  30.45999908  51.10000229
C    20.05000114  30.90999985  50.13000107
C    21.40000153  30.88999939  50.37000275
C    21.88999939  30.32999992  51.59000015
C    21.00000000  29.76000023  52.47000122
C    19.59000015  29.87999916  52.32999802
C    15.36999893  29.79999924  51.63999939
C    14.80999947  29.00000000  52.65999603
C    13.48999977  28.57999992  52.56999969
C    23.36999893  30.09000015  51.72999954
H    23.75520706  30.40387154  52.70015335
H    19.04000092  28.71999931  54.06000137
H    17.25000000  30.96999931  50.00999832
H    19.69000053  31.25999832  49.15999985
H    22.07999992  31.18999863  49.58000183
H    21.40999985  29.30999947  53.36999893
H    13.12000084  27.96999931  53.40000153
H    23.94000053  30.48999977  50.87999725
H    23.43000031  29.01000023  51.56999969
