96

S    15.06000042  33.61999893  57.11999893
C    17.79000092  33.63999939  56.44000244
C    16.50000000  33.27000046  56.14999771
C    16.25000000  32.79000092  54.81999969
C    17.20999908  32.72999954  53.82999802
C    18.52000046  33.16999817  54.10999680
C    19.59000015  33.13000107  53.15999985
C    20.89999962  33.31000137  53.52000427
C    21.14999962  33.90999985  54.78000259
C    20.13000107  34.04000092  55.70000076
C    18.81999969  33.54999924  55.45999908
C    14.80999947  32.80999756  54.59000015
C    14.07999992  33.36000061  55.66999817
C    12.69000053  33.48999786  55.72000122
C    22.50999832  34.47000122  55.14999771
H    23.13384056  33.80313873  55.74515533
H    17.95999908  34.09000015  57.41000366
H    16.97000122  32.44999695  52.81000137
H    19.44000053  32.70999908  52.16999817
H    21.70999908  33.13999939  52.81000137
H    20.22999954  34.56000137  56.65000153
H    12.18000031  33.94000244  56.56999969
H    23.02000046  34.68000031  54.20000076
H    22.34999847  35.40000153  55.70999908
S    11.63000011  31.98999786  52.21000290
C     8.93000031  31.80000114  53.00000000
C    10.19999981  32.27999878  53.22000122
C    10.51000023  33.01000214  54.40999985
C     9.44999981  33.29999924  55.25000000
C     8.09000015  32.97999954  55.01999664
C     6.97000027  33.38999939  55.79000092
C     5.72000027  32.93999863  55.44000244
C     5.42999983  32.22999954  54.25000000
C     6.52999973  31.77000046  53.55999756
C     7.86999989  32.11000061  53.88999939
C    11.95000076  33.08000183  54.61000061
C    12.68000031  32.61000061  53.48999786
C    14.06999969  32.50999832  53.43999863
C     4.01999998  31.93000031  53.80000305
H     3.73566961  32.39203644  52.85460281
H     8.51000023  31.35999870  52.09999847
H     9.64999962  33.72999954  56.23000336
H     7.23000002  33.86000061  56.73999786
H     4.92999983  33.25999832  56.11999893
H     6.38999987  31.11000061  52.70999908
H    14.57999992  32.11000061  52.56999969
H     3.32999992  32.25000000  54.58000183
H     3.97000027  30.84000015  53.69999695
S    11.79999924  30.20999908  49.33000183
C     9.17000008  29.54999924  50.00999832
C    10.51000023  29.41999817  50.26000214
C    11.02000046  28.82999802  51.45999908
C    10.11999989  28.16999817  52.28000259
C     8.73000050  28.39999962  52.15000153
C     7.78999996  27.93999863  53.11000061
C     6.44999981  27.93000031  52.80000305
C     5.96000004  28.54000092  51.62000275
C     6.84000015  28.95000076  50.65000153
C     8.23999977  28.97000122  50.91999817
C    12.46000099  29.03000069  51.62000275
C    13.02000046  29.76000023  50.54000092
C    14.34999943  30.15000153  50.56000137
C     4.50000000  28.90999985  51.47999573
H     4.10206413  28.54048729  50.53490067
H     8.85999966  30.23999977  49.22999954
H    10.54999924  27.84000015  53.22999954
H     8.09000015  27.55000114  54.08000183
H     5.82999992  27.53000069  53.60000229
H     6.51999998  29.50000000  49.75999832
H    14.68999958  30.86000061  49.80999756
H     3.96000004  28.54000092  52.35000229
H     4.46000004  30.00999832  51.42000198
S    15.85999966  28.46999931  53.79000092
C    18.52000046  29.06999969  53.06000137
C    17.17000008  29.27999878  52.90999985
C    16.65999985  29.96000099  51.76000214
C    17.59000015  30.50000000  50.89000320
C    18.97999954  30.30999947  51.03000259
C    19.96999931  30.81000137  50.13000107
C    21.31999969  30.65000153  50.33000183
C    21.80000114  29.92000198  51.45000076
C    20.88999939  29.31999969  52.29000092
C    19.48999977  29.54000092  52.12999725
C    15.21999931  29.77000046  51.59000015
C    14.61999989  29.07999992  52.67000198
C    13.26000023  28.80000114  52.74000168
C    23.26999855  29.70000076  51.70000076
H    23.65499496  30.22045517  52.57693100
H    18.81999969  28.34000015  53.80000305
H    17.28000069  30.89999962  49.93000031
H    19.61000061  31.34000015  49.25000000
H    21.97999954  31.09999847  49.59000015
H    21.21000099  28.92000008  53.23999786
H    12.82999992  28.23999786  53.56999969
H    23.81999969  29.87999916  50.76000214
H    23.45999908  28.61999893  51.77999878
