96

S    15.22999954  34.17000198  57.05999756
C    17.92000008  34.38000107  56.35000229
C    16.68000031  33.87000275  56.07999802
C    16.36000061  33.06000137  54.93999863
C    17.38999939  32.79000092  54.06000137
C    18.64999962  33.40999985  54.25000000
C    19.70000076  33.25000000  53.30999756
C    20.98999977  33.65000153  53.54999924
C    21.28999901  34.56000137  54.61000061
C    20.23999977  34.84000015  55.45000076
C    18.96999931  34.18999863  55.40999985
C    14.92000008  32.95999908  54.72000122
C    14.19000053  33.58000183  55.76000214
C    12.81000042  33.79000092  55.76000214
C    22.70999908  34.81999969  55.04000092
H    23.07179070  34.16735840  55.83452225
H    18.17000008  35.02999878  57.18000031
H    17.26000023  32.38999939  53.06000137
H    19.48999977  32.65999985  52.42000198
H    21.83000183  33.13000107  53.09000015
H    20.38000107  35.42000198  56.36000061
H    12.48999977  34.08000183  56.76000214
H    23.38000107  34.76000214  54.18000031
H    22.80999947  35.81000137  55.51000214
S    11.69999981  32.09000015  52.39999771
C     8.97999954  32.00999832  53.13999939
C    10.26999950  32.43000031  53.39000320
C    10.52999973  33.18999863  54.58000183
C     9.48000050  33.52999878  55.40999985
C     8.14999962  33.11000061  55.18000031
C     7.04999971  33.38000107  56.04000092
C     5.80999947  32.81999969  55.84999847
C     5.55999994  32.13999939  54.62999725
C     6.57999992  31.87000084  53.74000168
C     7.90000010  32.31999969  54.01000214
C    11.97999954  33.29999924  54.75000000
C    12.74000072  32.72000122  53.69999695
C    14.09999943  32.45999908  53.69999695
C     4.18000031  31.56999969  54.40000153
H     3.66733265  32.11827087  53.60963821
H     8.75000000  31.40999985  52.27000427
H     9.77999973  33.98999786  56.35000229
H     7.26000023  33.91999817  56.95999908
H     5.07000017  33.02999878  56.62000275
H     6.42000008  31.35999870  52.78999710
H    14.57999992  31.87000084  52.91999817
H     3.58000016  31.64999962  55.31000137
H     4.23000002  30.52000046  54.08000183
S    15.51000023  34.36999893  51.36000061
C    18.18000031  34.47000122  50.65999985
C    16.92000008  34.03000259  50.33000183
C    16.53000069  33.61999893  49.02000046
C    17.54999924  33.46999741  48.09000015
C    18.88000107  33.86000061  48.37999725
C    19.98999977  33.45999908  47.56999969
C    21.24000168  33.90999985  47.91999817
C    21.55999947  34.63000107  49.09999847
C    20.51000214  34.86999893  49.95999908
C    19.19000053  34.43000031  49.65999985
C    15.07999992  33.61000061  48.85000229
C    14.40000057  34.06999969  50.00000000
C    13.01000023  34.09000015  50.07999802
C    22.98000145  35.02999878  49.43000031
H    23.36281395  34.47704697  50.28778839
H    18.38999939  34.90999985  51.63000107
H    17.53999901  32.80999756  47.22999954
H    19.65999985  32.86999893  46.72000122
H    22.09000015  33.61999893  47.32999802
H    20.71000099  35.15000153  50.98999786
H    12.56000042  34.45000076  51.00000000
H    23.64999962  34.90000153  48.57999802
H    23.05999947  36.08000183  49.75000000
S    11.84999943  32.40999985  46.65000153
C     9.17000008  32.22999954  47.45999908
C    10.44999981  32.69000244  47.70000076
C    10.84000015  33.32999802  48.92000198
C     9.82999992  33.59999847  49.82999802
C     8.48999977  33.25999832  49.54000092
C     7.44000006  33.44000244  50.47999954
C     6.17000008  32.95999908  50.26000214
C     5.78000021  32.36999893  49.02999878
C     6.80000019  32.04999924  48.15999985
C     8.11999989  32.52999878  48.36000061
C    12.27000046  33.54000092  49.02000046
C    12.94999981  33.15000153  47.84000015
C    14.32999992  33.13000107  47.77000046
C     4.38000011  31.88999939  48.75000000
H     4.00245953  32.41713333  47.87381744
H     9.03999996  31.52000046  46.63999939
H     9.96999931  34.10000229  50.77999878
H     7.78999996  33.80000305  51.45000076
H     5.38000011  33.13000107  50.98999786
H     6.65000010  31.45999908  47.25000000
H    14.80999947  32.59999847  46.95000076
H     3.75000000  32.18000031  49.61000061
H     4.41000032  30.81000137  48.54999924
