96

S    15.39000034  33.77999878  56.88000107
C    18.09999847  34.01000214  56.12999725
C    16.80999947  33.63999939  55.81999969
C    16.53000069  33.11999893  54.52000046
C    17.56000137  33.06000137  53.60000229
C    18.89999962  33.38999939  53.93000031
C    19.95000076  33.45999908  52.97000122
C    21.17000198  34.01000214  53.26000214
C    21.47999954  34.36999893  54.59999847
C    20.50000000  34.38000107  55.56999969
C    19.19000053  33.94000244  55.22999573
C    15.08999920  33.01000214  54.36000061
C    14.34000015  33.36999893  55.51000214
C    12.97000027  33.59999847  55.54999924
C    22.88999939  34.80999756  54.92000198
H    23.37408447  34.11234665  55.60340881
H    18.20999908  34.38000107  57.15000153
H    17.43999863  32.79999924  52.55000305
H    19.67000008  33.11000061  51.97999954
H    21.81999969  34.22000122  52.42000198
H    20.72999954  34.59999847  56.60999680
H    12.48000050  34.10000229  56.38000107
H    23.36000061  34.73999786  53.93000031
H    22.95999908  35.86999893  55.19000244
S    11.82999992  32.43000031  51.90000153
C     9.19000053  32.11000061  52.74000168
C    10.44999981  32.62000275  53.00000000
C    10.81999969  33.15999985  54.27000046
C     9.81000042  33.52999878  55.13999939
C     8.47999954  33.18999863  54.82999802
C     7.50000000  33.20000076  55.86999893
C     6.19999981  32.81999969  55.65999985
C     5.86999989  32.13999939  54.45999908
C     6.84999990  31.84999847  53.54000092
C     8.15999985  32.40999985  53.67000198
C    12.27000046  33.18000031  54.41999817
C    12.94999981  32.85000229  53.22000122
C    14.32999992  32.73999786  53.20999908
C     4.50000000  31.52000046  54.29999924
H     3.86258435  32.09367752  53.62717056
H     8.92000008  31.55999947  51.84999847
H    10.06000042  33.58000183  56.19999695
H     7.78999996  33.44000244  56.88999939
H     5.50000000  32.86000061  56.50000000
H     6.60000038  31.14000130  52.76000214
H    14.88999939  32.52999878  52.30999756
H     3.98000002  31.52000046  55.26000214
H     4.63999987  30.45000076  54.13000107
S    11.89000034  30.12000084  49.09999847
C     9.22000027  29.70999908  49.87999725
C    10.55999947  29.54999924  50.13999939
C    11.00000000  29.03000069  51.39999771
C    10.06999969  28.54999924  52.29999924
C     8.67999935  28.57999992  52.04000092
C     7.73000002  28.02999878  52.94000244
C     6.38999987  28.23999786  52.70999908
C     5.98999977  28.88000107  51.50000000
C     6.88000011  29.40000153  50.59000015
C     8.27000046  29.20000076  50.79999924
C    12.44999981  29.11999893  51.50000000
C    13.04999924  29.80999947  50.40999985
C    14.34000015  30.29000092  50.54999924
C     4.50000000  29.10000038  51.32999802
H     4.07986116  28.51607895  50.51108551
H     8.90999985  30.23999977  48.99000168
H    10.50000000  28.09999847  53.18999863
H     7.97999954  27.56999969  53.88999939
H     5.66999960  27.76000023  53.36999893
H     6.53999996  30.02000046  49.77000427
H    14.81999969  30.76999855  49.69999695
H     3.89999986  28.90999985  52.22999954
H     4.35999966  30.15999985  51.09000397
S    15.70000076  28.78999901  53.94000244
C    18.39999962  29.33000183  53.27999878
C    17.05000114  29.54000092  53.06999969
C    16.60000038  30.06999969  51.81999969
C    17.48999977  30.48000145  50.84000015
C    18.88000107  30.39999962  51.13999939
C    19.84000015  30.86000061  50.20000076
C    21.18999863  30.82999992  50.44000244
C    21.63000107  30.39999962  51.72000122
C    20.75000000  29.90999985  52.64999771
C    19.36000061  29.82000160  52.36999893
C    15.17000008  29.92000198  51.62000275
C    14.52999973  29.23000145  52.68000031
C    13.22000027  28.77000046  52.62000275
C    23.02999878  30.76000023  52.16999817
H    23.52750397  30.22695923  52.98021698
H    18.67000008  28.81999969  54.20000076
H    17.13999939  30.79999924  49.86999893
H    19.52999878  31.18999863  49.20999908
H    21.86000061  31.28999901  49.72000122
H    21.11000061  29.65999985  53.64999771
H    12.76000023  28.21000099  53.41999817
H    22.89999962  31.77000046  52.56999969
H    23.68999863  30.81000137  51.30000305
