96

S    15.39000034  33.72999954  57.11000061
C    18.09000015  33.88999939  56.36000061
C    16.80999947  33.47999954  56.06999969
C    16.43000031  32.97999954  54.78000259
C    17.43000031  32.86999893  53.82999802
C    18.75000000  33.31999969  54.06999969
C    19.79999924  33.25999832  53.11000061
C    21.09000015  33.65000153  53.39000320
C    21.45000076  34.11000061  54.68000031
C    20.43000031  34.29000092  55.59000015
C    19.10000038  33.84000015  55.37000275
C    14.98000050  32.93999863  54.65000153
C    14.26000023  33.29000092  55.80999756
C    12.88000011  33.44000244  55.83000183
C    22.88999939  34.38000107  55.01999664
H    23.28127670  33.77529907  55.83812714
H    18.25000000  34.41999817  57.29999924
H    17.25000000  32.49000168  52.83000183
H    19.50000000  32.95999908  52.11000061
H    21.90000153  33.50000000  52.69000244
H    20.71000099  34.52999878  56.62000275
H    12.28000069  33.67000198  56.70999908
H    23.54000092  34.20999908  54.15000153
H    22.86999893  35.47000122  55.19000244
S    11.76000023  32.18000031  52.22000122
C     9.10000038  31.94000053  52.95000076
C    10.34999943  32.42000198  53.27000046
C    10.73999977  33.02999878  54.51000214
C     9.68999958  33.20999908  55.38999939
C     8.36999989  32.75000000  55.12000275
C     7.44000006  32.79999924  56.18999863
C     6.17999983  32.36999893  55.84999847
C     5.79999971  31.83000183  54.59999847
C     6.72999954  31.64999962  53.59000397
C     8.02999973  32.15999985  53.85000229
C    12.18000031  33.16999817  54.65000153
C    12.86999893  32.70999908  53.50000000
C    14.26000023  32.65999985  53.47999954
C     4.46999979  31.11999893  54.54000092
H     3.83813167  31.62407494  53.80873489
H     8.90999985  31.38000107  52.04000092
H     9.92999935  33.54000092  56.38999939
H     7.65999985  33.11999893  57.19999695
H     5.44000053  32.25000000  56.63999939
H     6.63000011  30.95000076  52.76000214
H    14.75000000  32.19000244  52.63000107
H     3.94000006  31.14999962  55.51000214
H     4.69999981  30.15000153  54.09999847
S    16.02000046  34.11000061  51.26999664
C    18.59000015  34.84000015  50.35999680
C    17.38000107  34.22999954  50.13999939
C    17.02999878  33.65000153  48.88000107
C    18.00000000  33.61999893  47.90000153
C    19.30999947  34.10000229  48.15000153
C    20.30999947  33.95999908  47.15000153
C    21.63000107  34.15999985  47.47000122
C    21.96000099  34.79000092  48.69999695
C    20.96999931  35.19000244  49.55999756
C    19.63000107  34.71999741  49.40999985
C    15.57999992  33.52999878  48.75999832
C    14.86999989  33.84000015  49.94999695
C    13.48999977  33.91999817  49.98000336
C    23.38999939  35.12000275  49.06000137
H    23.75179100  34.46735764  49.85452271
H    18.72999954  35.31999969  51.32999802
H    17.79000092  33.09000015  46.97999954
H    19.96999931  33.44000244  46.25999832
H    22.46999931  33.88000107  46.84000015
H    21.09000015  35.79000092  50.45999908
H    12.93000031  34.15000153  50.87999725
H    24.03000069  34.99000168  48.16999817
H    23.51000023  36.17000198  49.36000061
S    12.35000038  32.49000168  46.45999908
C     9.64999962  32.59000015  47.02000046
C    10.92000008  32.92000198  47.43000031
C    11.26999950  33.52999878  48.68000031
C    10.22999954  33.72000122  49.56999969
C     8.88000011  33.38000107  49.29000092
C     7.88999987  33.40999985  50.30000305
C     6.61999989  32.97000122  49.99000168
C     6.34000015  32.49000168  48.68000031
C     7.30999994  32.36999893  47.70999908
C     8.64000034  32.79000092  48.00000000
C    12.71000004  33.62999725  48.85000229
C    13.40999985  33.09999847  47.74000168
C    14.80000019  33.09999847  47.67000198
C     4.92000008  32.00000000  48.50999832
H     4.44214821  32.27101898  47.56855774
H     9.38000011  32.04999924  46.11999893
H    10.47999954  34.01000214  50.59000015
H     8.10999966  33.65999985  51.33999634
H     5.88999987  32.88000107  50.77999878
H     7.14999962  31.94000053  46.72999954
H    15.36000061  32.76000214  46.81000137
H     4.40000010  32.50999832  49.33000183
H     4.78999996  30.94000053  48.75999832
