96

S    15.19999981  33.72000122  56.90000153
C    17.86000061  33.95000076  56.23000336
C    16.61000061  33.52000046  55.84999847
C    16.31000137  33.06000137  54.52999878
C    17.39999962  32.93000031  53.68999863
C    18.70000076  33.36999893  54.02000046
C    19.84000015  33.09999847  53.20999908
C    21.09999847  33.58000183  53.48999786
C    21.32999802  34.15999985  54.75999832
C    20.29999924  34.25000000  55.66999817
C    18.95000076  33.93000031  55.31999969
C    14.85999966  33.04000092  54.36000061
C    14.13000011  33.38000107  55.52999878
C    12.74000072  33.44000244  55.65000153
C    22.72999954  34.56000137  55.18000031
H    23.19915390  33.80651093  55.81264877
H    18.06999969  34.24000168  57.25999832
H    17.21999931  32.52000046  52.69000244
H    19.64999962  32.63999939  52.23999786
H    21.98999786  33.41999817  52.88999939
H    20.62000084  34.45000076  56.68000031
H    12.30999947  33.82999802  56.56000137
H    23.34000015  34.59000015  54.27000046
H    22.72000122  35.54000092  55.65999985
S    11.68000031  32.45999908  51.90000153
C     8.90999985  32.47999954  52.63000107
C    10.24000072  32.69000244  52.90999985
C    10.62999916  33.13999939  54.20999908
C     9.67000008  33.31999969  55.19000244
C     8.30999947  33.02000046  54.94999695
C     7.27999973  32.95999908  55.93000031
C     5.98000002  32.63000107  55.63000107
C     5.58000040  32.29000092  54.31000137
C     6.56000042  32.25000000  53.34000015
C     7.90999985  32.56999969  53.63999939
C    12.06999969  33.18999863  54.45000076
C    12.75000000  32.80999756  53.27000046
C    14.13000011  32.63999939  53.22999954
C     4.21999979  31.73000145  53.96999741
H     3.71560144  32.29833603  53.18853760
H     8.60000038  31.97000122  51.72000122
H     9.89000034  33.52000046  56.23000336
H     7.53999996  33.15999985  56.95999908
H     5.27999973  32.72000122  56.45999908
H     6.34000015  31.86000061  52.35000229
H    14.60000038  32.38999939  52.29000092
H     3.68999982  31.68000031  54.93000031
H     4.35999966  30.66999817  53.70999908
S    15.90999985  34.31000137  51.04999924
C    18.63000107  34.31999969  50.31000137
C    17.29999924  34.15000153  49.97000122
C    16.82999992  33.77000046  48.67000198
C    17.79999924  33.46999741  47.71999741
C    19.15999985  33.68999863  48.02999878
C    20.13999939  33.47999954  47.02000046
C    21.47999954  33.69999695  47.23999786
C    21.88999939  34.27999878  48.47000122
C    21.00000000  34.40000153  49.52000046
C    19.62000084  34.15999985  49.31000137
C    15.38000011  33.67000198  48.56999969
C    14.72000027  34.04000092  49.75999832
C    13.32999992  34.11000061  49.79000092
C    23.31000137  34.70000076  48.81000137
H    23.72953224  34.12403488  49.63483810
H    19.00000000  34.73999786  51.25000000
H    17.46999931  33.18999863  46.72999954
H    19.75000000  33.23999786  46.04000092
H    22.21999931  33.50000000  46.46999741
H    21.25000000  34.75000000  50.52000046
H    12.86999893  34.34000015  50.75000000
H    23.98999977  34.69000244  47.95999908
H    23.19999886  35.70999908  49.22000122
S    12.13999939  32.90000153  46.18000031
C     9.46000004  32.95000076  46.90000153
C    10.76000023  33.27000046  47.22999954
C    11.11999989  33.81000137  48.50999832
C    10.08999920  34.11000061  49.36999893
C     8.73999977  33.75000000  49.13000107
C     7.57999992  34.01000214  49.92000198
C     6.32999992  33.48999786  49.65000153
C     6.11999989  32.76000214  48.46000290
C     7.17999983  32.57999802  47.58999634
C     8.43999958  33.18000031  47.84999847
C    12.56999969  33.84999847  48.64999771
C    13.23999977  33.36999893  47.49000168
C    14.63000107  33.36999893  47.43000031
C     4.73000002  32.27999878  48.11000061
H     4.21733284  32.82826996  47.31963730
H     9.36999989  32.25000000  46.06999969
H    10.26000023  34.40999985  50.40000153
H     7.78999996  34.52000046  50.86000061
H     5.55000019  33.61999893  50.38999939
H     7.11999989  32.13999939  46.59000015
H    14.98000050  32.93999863  46.50000000
H     4.00000000  32.21999741  48.92000198
H     4.88000011  31.24000168  47.81000137
