96

S    15.39000034  34.27000046  56.88999939
C    18.09000015  34.22000122  56.23000336
C    16.79999924  33.88999939  55.87999725
C    16.47999954  33.38999939  54.58000183
C    17.50000000  33.27999878  53.66000366
C    18.84000015  33.51000214  54.02000046
C    19.96999931  33.31999969  53.16999817
C    21.28000069  33.59000015  53.47999954
C    21.52000046  34.20000076  54.73999786
C    20.50000000  34.43000031  55.63999939
C    19.15999985  34.09000015  55.30000305
C    15.03999901  33.22999954  54.47000122
C    14.32000065  33.75000000  55.58000183
C    12.93000031  33.74000168  55.68000031
C    22.88999939  34.69000244  55.13999939
H    23.33127594  33.99961853  55.85884857
H    18.23999977  34.56000137  57.25999832
H    17.18000031  32.92000198  52.68000031
H    19.68000031  32.86999893  52.22999954
H    21.97000122  33.51000214  52.64999771
H    20.65999985  34.88999939  56.60999680
H    12.39999962  34.34999847  56.39999771
H    23.45000076  34.73999786  54.19000244
H    22.80999947  35.70000076  55.58000183
S    11.77000046  32.47000122  52.09000015
C     9.04999924  32.44999695  52.74000168
C    10.34000015  32.79999924  53.08000183
C    10.76000023  33.27000046  54.36999893
C     9.72999954  33.40999985  55.28999710
C     8.38000011  33.11000061  55.00999832
C     7.36000013  33.13000107  56.00999832
C     6.05999994  32.86999893  55.65999985
C     5.69000006  32.47000122  54.34999847
C     6.65999985  32.44999695  53.36999893
C     8.01999950  32.63999939  53.69999695
C    12.20000076  33.36000061  54.54999924
C    12.89000034  32.90000153  53.40000153
C    14.27000046  32.76000214  53.40000153
C     4.34999990  31.83000183  54.06000137
H     3.87196422  32.36511230  53.23949051
H     8.80000019  32.04999924  51.76000214
H     9.98999977  33.70999908  56.30000305
H     7.63999987  33.38000107  57.04000092
H     5.32000017  32.84000015  56.45000076
H     6.47000027  32.06000137  52.36999893
H    14.65000057  32.36000061  52.45999908
H     3.71000004  31.90999985  54.94999695
H     4.42999983  30.76999855  53.77999878
S    15.72999954  34.79999924  51.00000000
C    18.43000031  34.77000046  50.34999847
C    17.14999962  34.41999817  49.99000168
C    16.76000023  33.81999969  48.75000000
C    17.79999924  33.54000092  47.88000107
C    19.12999916  33.94000244  48.15000153
C    20.15999985  33.65000153  47.21000290
C    21.45999908  33.88999939  47.56999969
C    21.80000114  34.41999817  48.83999634
C    20.82999992  34.79999924  49.73999786
C    19.45999908  34.54999924  49.40000153
C    15.32999992  33.54999924  48.64999771
C    14.65999985  34.13000107  49.75999832
C    13.27999973  34.27999878  49.78000259
C    23.23999786  34.79999924  49.12000275
H    23.58801651  34.26021957  50.00069427
H    18.60999870  35.05000305  51.38000107
H    17.60000038  33.08000183  46.90999985
H    19.84000015  33.13999939  46.30000305
H    22.15999985  33.45000076  46.86999893
H    21.05999947  35.20000076  50.72000122
H    12.79999924  34.79000092  50.61000061
H    23.78999901  34.45999908  48.23999786
H    23.36999893  35.88000107  49.13000107
S    12.18000031  32.65999985  46.29000092
C     9.48000050  32.81999969  46.86000061
C    10.76000023  33.16999817  47.22000122
C    11.09000015  33.75000000  48.48999786
C    10.03999901  33.90000153  49.36999893
C     8.69999981  33.54000092  49.12000275
C     7.59999990  33.67000198  50.01999664
C     6.32000017  33.38000107  49.61999893
C     6.05000019  32.70000076  48.40000153
C     7.13000011  32.50000000  47.56999969
C     8.43999958  33.01000214  47.81000137
C    12.53000069  33.82999802  48.68000031
C    13.22999954  33.20999908  47.61000061
C    14.60999966  33.02000046  47.56999969
C     4.72000027  32.00999832  48.18999863
H     4.19378710  32.40821457  47.32246017
H     9.30000019  32.02999878  46.13999939
H    10.31000042  34.17000198  50.38999939
H     7.86000013  33.98999786  51.03000259
H     5.56999969  33.62999725  50.37000275
H     6.94999981  31.91999817  46.66999817
H    15.13000011  32.50000000  46.77999878
H     4.15000010  32.13999939  49.12000275
H     4.90000010  30.94000053  48.06000137
