96

S    15.47999954  34.10000229  57.14000320
C    18.15000153  34.13000107  56.66999817
C    16.93000031  33.68999863  56.19999695
C    16.61000061  33.29000092  54.86999893
C    17.65999985  33.09999847  54.00000000
C    18.94000053  33.55999756  54.38999939
C    20.09000015  33.47999954  53.54999924
C    21.35000038  33.82999802  53.97999573
C    21.54000092  34.34000015  55.28999710
C    20.48999977  34.43000031  56.18000031
C    19.20999908  33.97000122  55.73999786
C    15.18000031  33.04000092  54.73999786
C    14.42999935  33.48999786  55.84999847
C    13.04999924  33.58000183  55.97999954
C    22.89999962  34.86999893  55.68999863
H    23.32829285  34.25611496  56.48234177
H    18.27999878  34.65999985  57.61000061
H    17.65999985  32.66999817  53.00000000
H    20.02000046  33.01000214  52.56999969
H    22.15999985  33.65999985  53.29000092
H    20.52000046  34.79000092  57.19999695
H    12.57999992  33.65999985  56.95999908
H    23.52000046  34.87999725  54.78000259
H    22.79000092  35.88000107  56.11000061
S    11.96000004  32.43999863  52.32999802
C     9.27999973  32.27000046  53.09000015
C    10.57000065  32.61000061  53.41999817
C    10.92000008  33.27999878  54.62999725
C     9.92999935  33.38000107  55.59000015
C     8.59000015  33.01000214  55.34999847
C     7.55999994  33.02000046  56.33999634
C     6.28999996  32.59999847  56.03000259
C     5.84999990  32.34000015  54.71000290
C     6.88000011  32.27999878  53.79000092
C     8.26000023  32.54000092  54.02999878
C    12.36999989  33.25999832  54.79000092
C    13.07999992  32.76000214  53.67000198
C    14.45000076  32.57999802  53.62999725
C     4.59000015  31.57999992  54.40000153
H     3.89555907  32.22483826  53.86145401
H     9.07999992  32.04000092  52.04000092
H    10.19999981  33.61000061  56.62000275
H     7.78999996  33.15999985  57.39999771
H     5.69000006  32.26000214  56.86999893
H     6.76000023  31.91999817  52.77000046
H    14.82999992  32.27000046  52.67000198
H     4.38000011  31.31000137  55.44000244
H     4.82999992  30.73999786  53.74000168
S    15.77999973  34.52000046  51.39999771
C    18.50000000  34.77999878  50.65000153
C    17.21999931  34.36000061  50.38000107
C    16.86000061  34.00000000  49.03999710
C    17.86000061  33.84999847  48.09999847
C    19.22999954  34.13000107  48.36000061
C    20.34000015  33.98999786  47.49000168
C    21.61000061  34.45000076  47.77000046
C    21.83000183  35.15999985  48.97999573
C    20.79000092  35.29000092  49.86999893
C    19.50000000  34.72999954  49.64000320
C    15.44000053  33.70999908  48.88999939
C    14.72000027  34.05999756  50.05000305
C    13.34000015  34.25000000  50.06000137
C    23.22000122  35.56999969  49.41999817
H    23.63172913  34.83882904  50.11567688
H    18.60000038  35.22000122  51.63000107
H    17.60000038  33.38000107  47.15000153
H    20.09000015  33.59000015  46.52000046
H    22.53999901  34.24000168  47.23999786
H    20.90999985  35.72999954  50.86000061
H    12.84999943  34.63000107  50.93999863
H    23.84000015  35.75999832  48.54000092
H    23.05999947  36.55999756  49.86000061
S    12.25999928  33.02999878  46.42000198
C     9.57999992  32.85000229  47.18000031
C    10.85000038  33.27999878  47.48000336
C    11.13999939  33.81999969  48.76999664
C    10.14999962  34.01000214  49.71000290
C     8.82000065  33.62999725  49.38999939
C     7.75000000  33.63999939  50.33000183
C     6.46000004  33.27999878  50.02999878
C     6.15999985  32.93999863  48.68000031
C     7.17000008  32.86999893  47.75000000
C     8.52000046  33.20000076  48.04999924
C    12.58999920  33.94000244  48.92000198
C    13.30000019  33.44000244  47.80000305
C    14.68999958  33.38999939  47.75000000
C     4.77999973  32.40000153  48.37999725
H     4.46802425  32.61980057  47.35898972
H     9.30999947  32.25000000  46.31000137
H    10.40999985  34.24000168  50.73999786
H     8.07999992  33.86000061  51.35000229
H     5.73999977  33.04000092  50.80999756
H     7.02000046  32.27999878  46.84999847
H    15.21000004  33.13000107  46.83000183
H     3.94000006  32.63999939  49.03999710
H     4.77999973  31.30000114  48.47999954
