96

S    15.29000092  33.80000305  57.15999985
C    17.98999977  33.86000061  56.40999603
C    16.70999908  33.41999817  56.17000198
C    16.31999969  32.95000076  54.86999893
C    17.27000046  32.88000107  53.86000061
C    18.59000015  33.36000061  54.06000137
C    19.62000084  33.23999786  53.09000015
C    20.89999962  33.67000198  53.31999969
C    21.25000000  34.20000076  54.59000015
C    20.29999924  34.17000198  55.59000015
C    18.93000031  33.90999985  55.34000015
C    14.88999939  33.01000214  54.61999893
C    14.22999954  33.54999924  55.76000214
C    12.84999943  33.72000122  55.75000000
C    22.67999840  34.48999786  54.99000168
H    23.04951096  33.84335327  55.78587341
H    18.23999977  34.40999985  57.31999969
H    16.94000053  32.43999863  52.93000031
H    19.31999969  32.90999985  52.09000015
H    21.60000038  33.32999802  52.56999969
H    20.51000214  34.36000061  56.63999939
H    12.30000019  34.04000092  56.62000275
H    23.38999939  34.36999893  54.16999817
H    22.70000076  35.54000092  55.31999969
S    11.59000015  32.25000000  52.23999786
C     8.98999977  32.18000031  53.09000015
C    10.26999950  32.63000107  53.34999847
C    10.64000034  33.15999985  54.62999725
C     9.68999958  33.25000000  55.63999939
C     8.36000061  32.86999893  55.31999969
C     7.30999994  32.95999908  56.26999664
C     6.01999998  32.59999847  55.93999863
C     5.59000015  32.11999893  54.66999817
C     6.60000038  32.02000046  53.74000168
C     7.95000029  32.34000015  54.03999710
C    12.07999992  33.32999802  54.65000153
C    12.71999931  32.84000015  53.47999954
C    14.09000015  32.63999939  53.53000259
C     4.13000011  31.78999901  54.45000076
H     3.64505863  32.42470169  53.70832443
H     8.63000011  31.93000031  52.09999847
H     9.98000050  33.59999847  56.62000275
H     7.57999992  33.48999786  57.18000031
H     5.21000004  32.84000015  56.60999680
H     6.38999987  31.64999962  52.74000168
H    14.48999977  32.14999771  52.63999939
H     3.61000013  31.83000183  55.41999817
H     4.03999996  30.78000069  54.03999710
S    12.03999996  30.22000122  49.43000031
C     9.39999962  29.70999908  50.01999664
C    10.72000027  29.41999817  50.28999710
C    11.18000031  28.81999969  51.51000214
C    10.27999973  28.36000061  52.43999863
C     8.90999985  28.64000130  52.21000290
C     7.92999983  28.26000023  53.16999817
C     6.57999992  28.45999908  52.95000076
C     6.15999985  29.11999893  51.77000046
C     7.07999992  29.34000015  50.77000046
C     8.47999954  29.18000031  50.94999695
C    12.61999989  28.95999908  51.70000076
C    13.19000053  29.79999924  50.70999908
C    14.50000000  30.27000046  50.72999954
C     4.69999981  29.44999886  51.52999878
H     4.25064707  28.90079117  50.70262146
H     9.06999969  30.38999939  49.23999786
H    10.62999916  27.88000107  53.36000061
H     8.19000053  27.62000084  54.01000214
H     5.92000008  28.15000153  53.75000000
H     6.74000025  29.84999847  49.86999893
H    14.94999981  30.88999939  49.95999908
H     4.13999987  29.26000214  52.45999908
H     4.55999994  30.48000145  51.19999695
S    15.81999969  28.52999878  54.13999939
C    18.50000000  29.04999924  53.46000290
C    17.15999985  29.20999908  53.18999863
C    16.72000122  29.86999893  52.00000000
C    17.65999985  30.34000015  51.10000229
C    19.04000092  30.27000046  51.38000107
C    20.03000069  30.86000061  50.54000092
C    21.35999870  30.82999992  50.90000153
C    21.75000000  30.12000084  52.06999969
C    20.86000061  29.41999817  52.84000015
C    19.47000122  29.57999992  52.56999969
C    15.27999973  29.79999924  51.79000092
C    14.70999908  29.04999924  52.85999680
C    13.38999939  28.62999916  52.83000183
C    23.19000053  29.65999985  52.06999969
H    23.75776863  30.00065994  52.93584824
H    18.76000023  28.55999947  54.40000153
H    17.25000000  30.93000031  50.27999878
H    19.73999977  31.34000015  49.61000061
H    22.13000107  31.00000000  50.15999603
H    21.18000031  28.77000046  53.64999771
H    12.89999962  28.12000084  53.66000366
H    23.68000031  30.06999969  51.18000031
H    23.26999855  28.57999992  51.93000031
