96

S    15.55999947  34.27999878  56.98999786
C    18.23999977  34.45000076  56.25000000
C    16.97999954  33.97999954  55.97000122
C    16.61999893  33.36999893  54.72999954
C    17.69000053  33.11999893  53.87000275
C    19.02000046  33.47999954  54.16999817
C    20.12000084  33.23999786  53.29999924
C    21.42999840  33.58000183  53.57999802
C    21.68000031  34.38000107  54.72999954
C    20.65999985  34.64999771  55.61000061
C    19.32999992  34.20999908  55.37000275
C    15.18000031  33.25000000  54.61000061
C    14.44000053  33.72000122  55.72999954
C    13.05999947  33.80000305  55.79000092
C    23.12000084  34.72999954  55.02999878
H    23.54778099  34.17388535  55.86417007
H    18.44000053  35.15000153  57.05999756
H    17.48999977  32.49000168  53.01000214
H    19.96000099  32.75000000  52.34000397
H    22.22999954  33.38000107  52.88000107
H    21.02000046  35.09000015  56.53999710
H    12.50000000  34.05999756  56.68000031
H    23.71000099  34.56999969  54.13000107
H    23.36999893  35.75999832  55.28999710
S    11.97000027  32.18000031  52.31999969
C     9.25000000  32.20000076  52.95999908
C    10.52999973  32.59000015  53.27000046
C    10.90000057  33.18000031  54.52000046
C     9.89000034  33.36000061  55.45000076
C     8.53999996  33.02999878  55.17000198
C     7.50000000  33.18999863  56.12999725
C     6.19999981  32.85000229  55.81999969
C     5.88999987  32.20999908  54.59999847
C     6.90000010  31.96000099  53.68999863
C     8.22000027  32.44999695  53.89999771
C    12.31999969  33.47999954  54.64000320
C    13.02999973  32.88999939  53.54999924
C    14.40999985  32.83000183  53.50999832
C     4.48000002  31.75000000  54.34000015
H     4.00236416  32.22763824  53.48453140
H     9.19999981  31.80999947  51.95000076
H    10.22999954  33.74000168  56.39999771
H     7.72000027  33.38999939  57.16999817
H     5.47999954  32.90000153  56.63999939
H     6.58999968  31.42999840  52.78999710
H    14.98000050  32.52999878  52.63999939
H     3.93000007  32.07999802  55.22999573
H     4.40000010  30.71000099  54.00000000
S    15.71000004  34.50000000  51.22000122
C    18.43000031  34.34999847  50.61999893
C    17.13999939  33.97000122  50.31999969
C    16.77999878  33.52999878  49.01000214
C    17.73999977  33.38999939  48.02999878
C    19.06999969  33.81999969  48.29999924
C    20.06999969  33.72000122  47.29000092
C    21.34000015  34.15999985  47.56999969
C    21.68000031  34.68000031  48.85000229
C    20.75000000  34.71999741  49.86999893
C    19.42000008  34.29999924  49.61000061
C    15.34999943  33.55999756  48.70999908
C    14.67000008  34.06999969  49.85000229
C    13.27999973  34.11000061  49.86000061
C    23.06999969  35.15999985  49.19000244
H    23.61780357  34.45568466  49.81606293
H    18.71000099  34.87999725  51.52999878
H    17.53999901  33.04999924  47.02000046
H    19.78000069  33.38000107  46.30000305
H    22.11000061  33.95000076  46.83000183
H    20.92000008  35.18000031  50.84000015
H    12.81999969  34.24000168  50.83000183
H    23.45999908  35.51000214  48.22999954
H    22.95000076  36.06999969  49.79999924
S    12.17000008  32.75000000  46.32999802
C     9.42000008  32.75000000  47.01000214
C    10.72999954  33.04999924  47.31999969
C    11.09000015  33.68999863  48.54999924
C    10.13000011  33.65999985  49.54000092
C     8.78000069  33.29999924  49.29000092
C     7.81000042  33.47999954  50.31000137
C     6.50000000  33.11000061  50.08999634
C     6.10000038  32.57999802  48.83999634
C     7.02000046  32.50000000  47.81000137
C     8.38999939  32.86999893  47.97000122
C    12.53999901  33.79000092  48.72000122
C    13.26000023  33.25999832  47.63000107
C    14.63999939  33.08000183  47.61000061
C     4.67999983  32.09000015  48.66000366
H     4.16319275  32.63552094  47.87043381
H     9.15000057  32.29000092  46.05999756
H    10.47999954  33.75000000  50.56000137
H     8.11999989  33.86000061  51.26999664
H     5.79999971  33.43000031  50.86000061
H     6.77999973  32.22999954  46.79000092
H    15.08999920  32.52000046  46.79999924
H     4.18000031  32.11999893  49.64000320
H     4.69999981  31.02999878  48.36999893
