96

S    15.08999920  33.56999969  57.18000031
C    17.75000000  33.62999725  56.44000244
C    16.47999954  33.22000122  56.12999725
C    16.11999893  32.72999954  54.82999802
C    17.13000107  32.68000031  53.88999939
C    18.44000053  33.11999893  54.15999985
C    19.47000122  32.95999908  53.18999863
C    20.78000069  33.20999908  53.50000000
C    21.15999985  33.77999878  54.75000000
C    20.13999939  33.97999954  55.65999985
C    18.79999924  33.52999878  55.48999786
C    14.67000008  32.70000076  54.65999985
C    14.01999950  33.15999985  55.83000183
C    12.64000034  33.36000061  55.86000061
C    22.57999802  34.11000061  55.12000275
H    23.01897812  33.54357529  55.94131851
H    17.95999908  34.13000107  57.37999725
H    16.87000084  32.06000137  53.02999878
H    19.12999916  32.52000046  52.25000000
H    21.42999840  32.95000076  52.67000198
H    20.34000015  34.45999908  56.60999680
H    12.13000107  33.31000137  56.81999969
H    23.22999954  33.95999908  54.25000000
H    22.56000137  35.16999817  55.40000153
S    11.42000008  32.00000000  52.29000092
C     8.78999996  31.68000031  53.18999863
C    10.08999920  32.06999969  53.46000290
C    10.47000027  32.66999817  54.69999695
C     9.44999981  32.78000259  55.61999893
C     8.10000038  32.43999863  55.38999939
C     7.03000021  32.61000061  56.31999969
C     5.75000000  32.22999954  56.00000000
C     5.46000004  31.45999908  54.85000229
C     6.43000031  31.35999870  53.88000107
C     7.73000002  31.88999939  54.10999680
C    11.87999916  33.02999878  54.72999954
C    12.51999950  32.56999969  53.55999756
C    13.90999985  32.42000198  53.52000427
C     4.05999994  30.96999931  54.55999756
H     3.54181266  31.71533775  53.95663071
H     8.56999969  31.56999969  52.12999725
H     9.72000027  33.06000137  56.63000107
H     7.09999990  33.08000183  57.29999924
H     4.90999985  32.65000153  56.55000305
H     6.30999994  30.73999786  52.98999786
H    14.37999916  31.94000053  52.67000198
H     3.51000023  30.88000107  55.51000214
H     3.98999977  29.93999863  54.19000244
S    11.82999992  30.15000153  49.29999924
C     9.21000004  29.61000061  50.04000092
C    10.54999924  29.36000061  50.24000168
C    11.06999969  28.62999916  51.36000061
C    10.19000053  28.12999916  52.30999756
C     8.80000019  28.34000015  52.18000031
C     7.82000017  27.79000092  53.06000137
C     6.47000027  27.89999962  52.84000015
C     6.01999998  28.57000160  51.66999817
C     6.94000006  29.07999992  50.79000092
C     8.34999943  29.07999992  51.03000259
C    12.51000023  28.80000114  51.49000168
C    13.05999947  29.50000000  50.40000153
C    14.40999985  29.84999847  50.33000183
C     4.55000019  28.88000107  51.52999878
H     4.17255545  28.62362289  50.54009628
H     8.82999992  30.10999870  49.15999985
H    10.54999924  27.47999954  53.11000061
H     8.10999966  27.30999947  53.99000168
H     5.78999996  27.30999947  53.44999695
H     6.72999954  29.69000053  49.91000366
H    15.01999950  30.22000122  49.52000046
H     3.94000006  28.51000023  52.36000061
H     4.44000006  29.96999931  51.56999969
S    15.88000107  28.64000130  53.83999634
C    18.55999947  29.11999893  53.02999878
C    17.20000076  29.20999908  52.80000305
C    16.64999962  29.79999924  51.60999680
C    17.56999969  30.31999969  50.72000122
C    18.95000076  30.42000008  51.00999832
C    19.88999939  30.95999908  50.08999634
C    21.25000000  30.88999939  50.30000305
C    21.73999977  30.29000092  51.49000168
C    20.88000107  29.76000023  52.42000198
C    19.47999954  29.77000046  52.16999817
C    15.21000004  29.65999985  51.45999908
C    14.65999985  29.02000046  52.60000229
C    13.38999939  28.46999931  52.54000092
C    23.22000122  30.38000107  51.77000046
H    23.58829498  29.99045944  52.71906281
H    18.86000061  28.50000000  53.87000275
H    17.23999977  30.71000099  49.75999832
H    19.42000008  31.40999985  49.22000122
H    21.91999817  31.32999802  49.56999969
H    21.11000061  29.41999817  53.43000031
H    13.00000000  27.89999962  53.36999893
H    23.45000076  31.45000076  51.76000214
H    23.69999886  29.76000023  51.00000000
