96

S    15.67999935  33.61999893  57.05999756
C    18.35000038  33.77999878  56.23000336
C    17.06999969  33.34999847  56.00000000
C    16.62999916  32.80999756  54.75000000
C    17.57999992  32.65999985  53.75000000
C    18.90999985  33.09000015  53.94000244
C    19.86999893  33.06999969  52.88000107
C    21.12999916  33.55999756  53.09999847
C    21.54000092  34.11000061  54.34000015
C    20.62999916  34.20999908  55.37000275
C    19.30999947  33.70999908  55.18000031
C    15.18000031  32.72000122  54.61999893
C    14.52999973  33.22000122  55.77000046
C    13.14000034  33.34999847  55.84999847
C    22.98999977  34.45999908  54.56999969
H    23.28883934  33.76270676  55.35267258
H    18.59000015  34.17000198  57.22000122
H    17.19000053  32.22999954  52.83000183
H    19.52000046  32.75000000  51.90999985
H    21.90000153  33.52000046  52.34000397
H    21.02000046  34.52000046  56.32999802
H    12.61000061  33.81000137  56.68000031
H    23.61000061  34.38999939  53.66000366
H    23.09999847  35.47000122  54.98000336
S    11.87000084  32.36000061  52.25999832
C     9.17000008  32.37999725  52.98999786
C    10.48999977  32.47999954  53.36999893
C    10.86999989  32.88999939  54.68000031
C     9.84000015  33.22000122  55.54999924
C     8.47000027  33.06999969  55.22999573
C     7.39000034  33.38000107  56.10000229
C     6.09000015  33.01000214  55.84000015
C     5.78999996  32.34999847  54.61999893
C     6.80000019  32.06999969  53.72000122
C     8.13000011  32.50000000  53.95000076
C    12.31999969  32.90999985  54.80999756
C    13.00000000  32.54000092  53.61999893
C    14.37000084  32.33000183  53.54999924
C     4.40000010  31.80000114  54.41999817
H     3.81430101  32.44284058  53.76287460
H     8.80999947  32.07999802  52.01000214
H    10.05000019  33.54000092  56.56999969
H     7.78999996  33.75999832  57.04000092
H     5.33999968  33.15000153  56.60999680
H     6.44000006  31.47999954  52.88000107
H    14.93000031  31.98999786  52.68000031
H     3.84000015  31.65999985  55.34999847
H     4.44000006  30.81000137  53.95000076
S    12.22000027  30.22999954  49.51000214
C     9.57999992  29.64999962  50.12000275
C    10.90999985  29.43000031  50.40000153
C    11.36000061  28.85000038  51.63000107
C    10.44000053  28.51000023  52.60000229
C     9.06999969  28.64999962  52.30999756
C     8.13000011  28.05999947  53.20000076
C     6.77999973  28.15000153  52.94000244
C     6.32999992  28.84000015  51.77999878
C     7.21000004  29.44000053  50.90999985
C     8.60999966  29.25000000  51.07999802
C    12.76999950  29.14999962  51.84999847
C    13.42000008  29.64999962  50.68999863
C    14.78000069  29.89999962  50.65000153
C     4.85000038  29.05999947  51.59999847
H     4.50710821  28.72425270  50.62132645
H     9.25000000  30.10000038  49.19000244
H    10.65000057  28.22999954  53.62999725
H     8.56000042  27.67000008  54.12000275
H     6.06999969  27.78000069  53.67000198
H     6.78999996  29.86999893  50.00999832
H    15.27999973  30.29000092  49.77000427
H     4.32000017  28.68999863  52.49000168
H     4.65000010  30.13999939  51.63999939
S    16.13000107  28.46999931  54.12000275
C    18.79999924  28.95999908  53.43000031
C    17.46999931  29.04999924  53.11000061
C    17.02000046  29.61999893  51.88000107
C    17.94000053  30.10000038  50.97000122
C    19.31999969  30.06000137  51.30000305
C    20.29000092  30.76000023  50.52999878
C    21.63000107  30.71000099  50.84999847
C    22.06999969  29.97999954  51.97999954
C    21.14999962  29.46000099  52.87000275
C    19.77000046  29.46000099  52.52999878
C    15.57000065  29.54000092  51.76000214
C    14.93999958  28.92999840  52.87000275
C    13.55999947  28.81999969  52.95999908
C    23.54999924  29.77999878  52.18000031
H    23.88540268  30.05831337  53.17907333
H    19.15999985  28.52999878  54.36999893
H    17.64999962  30.65000153  50.07999802
H    19.82999992  31.24000168  49.66999817
H    22.25000000  31.11000061  50.06000137
H    21.37000084  29.07999992  53.87000275
H    13.05999947  28.35000038  53.79000092
H    24.13000107  30.32999992  51.42000198
H    23.82999802  28.71999931  52.11000061
