96

S    15.39000034  33.79000092  57.08000183
C    18.04999924  33.97000122  56.38000107
C    16.79000092  33.54000092  56.02000427
C    16.46000099  33.11000061  54.69999695
C    17.46000099  32.95000076  53.75000000
C    18.78000069  33.25999832  54.13000107
C    19.85999870  33.02000046  53.22999954
C    21.11999893  33.46999741  53.52000427
C    21.40999985  34.01000214  54.79999924
C    20.43999863  34.11000061  55.77000046
C    19.09000015  33.77999878  55.44000244
C    15.01000023  33.04000092  54.55999756
C    14.30999947  33.54000092  55.68999863
C    12.94000053  33.75000000  55.72999954
C    22.81999969  34.38999939  55.20000076
H    23.29184151  33.65364075  55.85057068
H    18.22000122  34.47000122  57.32999802
H    17.19000053  32.50999832  52.78999710
H    19.71999931  32.70999908  52.18999863
H    21.86000061  33.56999969  52.72999573
H    20.69000053  34.36000061  56.79999924
H    12.43000031  33.90000153  56.68000031
H    23.46999931  34.52000046  54.31999969
H    22.75000000  35.43000031  55.54999924
S    11.79999924  32.44999695  52.16999817
C     9.07999992  32.36000061  52.98999786
C    10.38000011  32.73999786  53.20000076
C    10.73999977  33.31999969  54.45999908
C     9.78999996  33.52999878  55.45000076
C     8.43999958  33.16999817  55.24000168
C     7.36999989  33.34999847  56.17000198
C     6.07999992  32.97999954  55.90000153
C     5.78999996  32.18000031  54.75999832
C     6.76999998  32.06999969  53.80000305
C     8.10000038  32.52999878  54.00000000
C    12.18000031  33.39999771  54.61000061
C    12.89000034  32.85000229  53.50999832
C    14.26000023  32.61000061  53.46000290
C     4.39000034  31.63999939  54.52999878
H     3.93436337  32.08851624  53.64720535
H     8.85999966  31.80000114  52.08000183
H    10.06000042  34.01000214  56.38000107
H     7.59999990  33.79000092  57.12999725
H     5.25000000  33.04999924  56.59999847
H     6.52999973  31.52000046  52.90000153
H    14.70000076  32.22999954  52.54000092
H     3.86999989  31.83000183  55.47000122
H     4.33999968  30.55999947  54.31999969
S    11.95000076  30.30999947  49.47999954
C     9.27999973  29.71999931  50.11000061
C    10.60999966  29.71999931  50.47999954
C    11.05000019  29.04999924  51.66999817
C    10.17000008  28.34000015  52.45999908
C     8.80000019  28.35000038  52.09000015
C     7.81000042  27.86000061  52.98999786
C     6.44999981  28.01000214  52.84000015
C     6.05000019  28.59000015  51.60999680
C     6.93000031  29.20999908  50.75000000
C     8.32999992  29.04000092  50.93000031
C    12.50000000  29.11000061  51.81000137
C    13.09999943  29.77999878  50.72000122
C    14.44000053  30.17000008  50.73999786
C     4.56999969  28.84000015  51.43000031
H     4.19364691  28.35713196  50.52817154
H     8.94999981  30.26000023  49.22999954
H    10.46000004  28.09000015  53.47999954
H     8.19000053  27.43000031  53.90999603
H     5.89999962  27.81999969  53.75999832
H     6.65000010  29.87999916  49.94999695
H    14.94999981  30.76999855  50.00000000
H     4.01999998  28.62999916  52.36000061
H     4.39000034  29.93000031  51.40999603
S    15.85000038  28.64999962  54.10999680
C    18.53000069  28.95000076  53.46000290
C    17.21999931  29.18999863  53.11999893
C    16.72999954  29.77999878  51.90000153
C    17.68000031  30.29000092  51.03000259
C    19.05999947  30.20999908  51.33999634
C    20.06999969  30.76000023  50.50000000
C    21.40999985  30.58000183  50.75000000
C    21.77999878  29.87999916  51.93000031
C    20.84000015  29.41999817  52.81000137
C    19.44000053  29.57999992  52.57999802
C    15.29000092  29.70999908  51.76000214
C    14.67000008  29.02000046  52.83000183
C    13.31999969  28.71000099  52.87000275
C    23.19999886  29.37000084  52.09999847
H    23.64151955  29.88273239  52.95455551
H    18.85000038  28.61000061  54.43999863
H    17.34000015  30.84000015  50.15999603
H    19.72999954  31.25000000  49.59999847
H    22.13999939  30.71000099  49.95999908
H    21.09999847  28.67000198  53.54999924
H    12.84999943  28.15999985  53.68000031
H    23.78000069  29.71999931  51.24000168
H    23.31000137  28.29000092  52.25000000
