96

S    15.71000004  33.95000076  57.15000153
C    18.44000053  34.26000214  56.31999969
C    17.13999939  33.86000061  56.11000061
C    16.77000046  33.31000137  54.84000397
C    17.76000023  33.18999863  53.88000107
C    19.09000015  33.63999939  54.03999710
C    20.17000008  33.45999908  53.13000107
C    21.47000122  33.56999969  53.55999756
C    21.80000114  34.11999893  54.82999802
C    20.78000069  34.56999969  55.63999939
C    19.44000053  34.18999863  55.31999969
C    15.36000061  32.95999908  54.72999954
C    14.61999989  33.43000031  55.84999847
C    13.22999954  33.44000244  55.89000320
C    23.23999786  34.36000061  55.21999741
H    23.66136169  33.63154221  55.91274643
H    18.73999977  34.50000000  57.34000397
H    17.63000107  32.56999969  53.00000000
H    20.02000046  32.95999908  52.18000031
H    22.23999977  33.25000000  52.87000275
H    21.01000023  35.04000092  56.59000015
H    12.64000034  33.55999756  56.79000092
H    23.75999832  34.48999786  54.26000214
H    23.15999985  35.34000015  55.70999908
S    12.11999989  32.09000015  52.39999771
C     9.36999989  32.07999802  53.02000046
C    10.67000008  32.36999893  53.37999725
C    11.00999928  32.85000229  54.68999863
C     9.92999935  33.01000214  55.54000092
C     8.56999969  32.79999924  55.20999908
C     7.50000000  32.88000107  56.13999939
C     6.26999950  32.40999985  55.76000214
C     5.96000004  32.00000000  54.43999863
C     6.94999981  32.07999802  53.48999786
C     8.27999973  32.40999985  53.86000061
C    12.46000099  33.01000214  54.79999924
C    13.22999954  32.56999969  53.69999695
C    14.61999989  32.52999878  53.62999725
C     4.56999969  31.53000069  54.06000137
H     4.09945297  32.15026855  53.29714203
H     9.11999989  31.54000092  52.11999893
H    10.10000038  33.48999786  56.50000000
H     7.73999977  33.20000076  57.15999985
H     5.45000029  32.33000183  56.47999573
H     6.75000000  31.87000084  52.43999863
H    15.17000008  32.29999924  52.71999741
H     3.91999984  31.38999939  54.93999863
H     4.63000011  30.52000046  53.64999771
S    15.86999989  34.31999969  51.10000229
C    18.56999969  34.45999908  50.34000015
C    17.28000069  34.10000229  50.05000305
C    16.92000008  33.56999969  48.75999832
C    17.89999962  33.45000076  47.78999710
C    19.25000000  33.69999695  48.09999847
C    20.32999992  33.38000107  47.22999954
C    21.63000107  33.72999954  47.52999878
C    21.91999817  34.38000107  48.75999832
C    20.93000031  34.63999939  49.68000031
C    19.60000038  34.22000122  49.40000153
C    15.47999954  33.38000107  48.64999771
C    14.77000046  33.81999969  49.79000092
C    13.38999939  33.97000122  49.82999802
C    23.31999969  34.86999893  49.06000137
H    23.78334045  34.23558044  49.81560135
H    18.84000015  34.77000046  51.35000229
H    17.61999893  33.20000076  46.77000046
H    20.02000046  32.93999863  46.29000092
H    22.39999962  33.54999924  46.77999878
H    21.19999886  35.09000015  50.63000107
H    12.96000004  34.38000107  50.73999786
H    23.82999802  35.05000305  48.11000061
H    23.15000153  35.86999893  49.47999954
S    12.25000000  32.55000305  46.31999969
C     9.51000023  32.52000046  46.93000031
C    10.80999947  32.65999985  47.34000397
C    11.21000099  33.20000076  48.61000061
C    10.14000034  33.41999817  49.45999908
C     8.78000069  33.15000153  49.15999985
C     7.73000002  33.20999908  50.12000275
C     6.40999985  32.95000076  49.80999756
C     6.10000038  32.52999878  48.48999786
C     7.07999992  32.40000153  47.52999878
C     8.43000031  32.72000122  47.83000183
C    12.64000034  33.38999939  48.80000305
C    13.35000038  33.00000000  47.63999939
C    14.73999977  32.93999863  47.55000305
C     4.72000027  31.97999954  48.22999954
H     4.19072628  32.56649017  47.47900391
H     9.35000038  32.27000046  45.89000320
H    10.26000023  33.90000153  50.41999817
H     7.96999979  33.43000031  51.14999771
H     5.73000002  33.13999939  50.63000107
H     6.76999998  32.00999832  46.56000137
H    15.19000053  32.66999817  46.59999847
H     4.21000004  31.90000153  49.20000076
H     4.86999989  30.97999954  47.78999710
