96

S    15.01000023  34.06999969  56.90999985
C    17.72999954  34.25000000  56.16000366
C    16.44000053  33.84000015  55.89000320
C    16.00000000  33.36000061  54.61000061
C    17.02999878  33.09999847  53.72000122
C    18.38000107  33.44000244  53.95000076
C    19.43000031  33.20999908  53.01000214
C    20.72999954  33.54999924  53.30999756
C    21.15999985  33.95999908  54.59999847
C    20.13999939  34.20000076  55.50000000
C    18.76000023  33.95000076  55.24000168
C    14.55999947  33.29999924  54.41999817
C    13.89000034  33.81999969  55.56000137
C    12.50000000  33.84000015  55.59999847
C    22.60000038  34.33000183  54.86000061
H    23.00593948  33.78874588  55.71461105
H    17.97999954  34.61000061  57.15999985
H    16.65999985  32.78000259  52.75000000
H    19.09000015  32.97000122  52.01000214
H    21.45999908  33.51000214  52.50999832
H    20.38999939  34.63999939  56.45000076
H    12.00000000  33.91999817  56.56000137
H    23.16999817  34.11000061  53.94000244
H    22.70999908  35.38999939  55.13000107
S    11.38000011  32.22999954  52.15000153
C     8.64000034  32.09000015  52.91999817
C     9.94000053  32.47999954  53.15000153
C    10.31999969  33.13999939  54.36000061
C     9.32999992  33.45999908  55.27000046
C     7.99000025  33.04999924  55.06000137
C     6.94000006  33.31000137  55.98999786
C     5.65999985  32.84000015  55.79999924
C     5.29999971  32.23999786  54.56999969
C     6.25999975  31.96000099  53.61999893
C     7.60999966  32.34999847  53.86000061
C    11.75000000  33.38999939  54.52000046
C    12.43999958  33.04000092  53.33000183
C    13.82999992  33.00000000  53.27000046
C     3.88000011  31.98999786  54.13000107
H     3.51742506  32.66538239  53.35508728
H     8.43000031  31.59000015  51.97999954
H     9.59000015  33.91999817  56.22000122
H     7.23999977  33.82999802  56.90000153
H     4.98000002  33.02000046  56.63000107
H     6.06999969  31.64999962  52.60000229
H    14.19000053  32.65999985  52.29999924
H     3.17000008  32.09999847  54.95999908
H     3.81000018  30.92000008  53.86000061
S    11.97999954  30.35000038  49.38000107
C     9.32999992  29.80999947  50.10000229
C    10.67999935  29.61000061  50.33000183
C    11.14999962  29.05999947  51.56999969
C    10.19999981  28.55999947  52.43999863
C     8.82000065  28.59999847  52.14000320
C     7.86999989  28.05000114  53.04999924
C     6.51999998  28.21000099  52.85999680
C     6.09000015  28.78999901  51.63999939
C     6.94000006  29.46000099  50.79000092
C     8.34000015  29.28999901  50.97000122
C    12.57999992  29.27000046  51.73999786
C    13.15999985  29.93999863  50.63999939
C    14.45000076  30.45999908  50.72999954
C     4.61999989  29.05999947  51.47999573
H     4.13625574  28.61182594  50.61210632
H     9.04999924  30.20000076  49.13000107
H    10.42000008  27.92000008  53.29000092
H     8.27000046  27.65000153  53.97999573
H     5.82999992  28.00000000  53.67000198
H     6.61000013  30.03000069  49.92000198
H    14.89999962  30.98999977  49.88999939
H     4.03999996  28.78000069  52.36999893
H     4.67999983  30.13999939  51.25000000
S    15.88000107  28.78000069  54.09000015
C    18.51000023  29.37000084  53.41999817
C    17.17000008  29.56999969  53.15999985
C    16.69000053  30.25000000  52.00000000
C    17.61999893  30.76999855  51.11999893
C    19.00000000  30.51000214  51.30000305
C    19.98999977  30.75000000  50.30000305
C    21.31000137  30.39999962  50.44000244
C    21.76000214  29.89999962  51.69000244
C    20.86000061  29.69000053  52.71999741
C    19.47000122  29.89000130  52.50999832
C    15.25000000  30.09000015  51.81999969
C    14.70000076  29.36000061  52.90000153
C    13.36999989  28.95999908  52.84999847
C    23.23999786  29.71999931  51.90999985
H    23.50893211  29.93939209  52.94326782
H    18.73999977  28.75000000  54.27000046
H    17.28000069  31.04999924  50.13000107
H    19.70000076  31.38999939  49.47000122
H    22.01000023  30.69999886  49.65999985
H    21.21000099  29.37999916  53.69999695
H    13.05999947  28.44000053  53.75000000
H    23.88999939  30.17999840  51.16000366
H    23.50000000  28.64999962  51.93000031
