96

S    15.39000034  34.27999878  57.14000320
C    18.12999916  34.48999786  56.52000046
C    16.87000084  34.05999756  56.18000031
C    16.54000092  33.39999771  54.95999908
C    17.56999969  33.04999924  54.09999847
C    18.86999893  33.54000092  54.38000107
C    19.88999939  33.23999786  53.41999817
C    21.15999985  33.72000122  53.62999725
C    21.50000000  34.27000046  54.89999771
C    20.53999901  34.61999893  55.80999756
C    19.18000031  34.22999954  55.59999847
C    15.11000061  33.22999954  54.78000259
C    14.30999947  33.72000122  55.84999847
C    12.93000031  33.82999802  55.90000153
C    22.92000008  34.68000031  55.22999573
H    23.34021759  34.06747818  56.02770233
H    18.31999969  34.95999908  57.48000336
H    17.51000023  32.22999954  53.39000320
H    19.52000046  32.72999954  52.54000092
H    21.88999939  33.47999954  52.87000275
H    20.69999886  35.18000031  56.72000122
H    12.39999962  34.10000229  56.81000137
H    23.61000061  34.56999969  54.38000107
H    22.93000031  35.75000000  55.47000122
S    12.02000046  32.19000244  52.41000366
C     9.26999950  32.11000061  53.04999924
C    10.54999924  32.52000046  53.34999847
C    10.80000019  33.20999908  54.58000183
C     9.82999992  33.38000107  55.54000092
C     8.50000000  33.04999924  55.20000076
C     7.42000008  33.09000015  56.12999725
C     6.17999983  32.54000092  55.90000153
C     5.95000029  31.90999985  54.65000153
C     6.90000010  31.94000053  53.66000366
C     8.21000004  32.43000031  53.93000031
C    12.23000050  33.40999985  54.75999832
C    13.02000046  32.86000061  53.70999908
C    14.40999985  32.78000259  53.66000366
C     4.51999998  31.45999908  54.40999985
H     4.01498079  32.03614807  53.63468933
H     9.13999939  31.40999985  52.22000122
H    10.06000042  33.75000000  56.53999710
H     7.63999987  33.36999893  57.15999985
H     5.42999983  32.47999954  56.66999817
H     6.72999954  31.52000046  52.67000198
H    14.86999989  32.34000015  52.77999878
H     3.98000002  31.47999954  55.35999680
H     4.55999994  30.45000076  54.00000000
S    12.02999973  30.56999969  49.54999924
C     9.39999962  29.82000160  50.01999664
C    10.72999954  29.69000053  50.35999680
C    11.26000023  29.00000000  51.50000000
C    10.31000042  28.54000092  52.38999939
C     8.93999958  28.57000160  52.05999756
C     7.90999985  28.13999939  52.94000244
C     6.57000017  28.12000084  52.62000275
C     6.11999989  28.81000137  51.46999741
C     7.05999947  29.28999901  50.58000183
C     8.45000076  29.13999939  50.83000183
C    12.69999981  29.14999962  51.66999817
C    13.26000023  30.05000114  50.72000122
C    14.59000015  30.45000076  50.77000046
C     4.67000008  29.11000061  51.14999771
H     4.26352167  28.51811028  50.32991028
H     9.11000061  30.35000038  49.12000275
H    10.55999947  28.12000084  53.36999893
H     8.19999981  27.63999939  53.86000061
H     5.78999996  27.69000053  53.23999786
H     6.81999969  29.96000099  49.75000000
H    15.00000000  31.14000130  50.04000092
H     4.02999973  28.97000122  52.02999878
H     4.67000008  30.15000153  50.79999924
S    16.06999969  28.64000130  53.99000168
C    18.65999985  29.43000031  53.36999893
C    17.31999969  29.51000023  53.08000183
C    16.82999992  30.12000084  51.88000107
C    17.76000023  30.79000092  51.09000397
C    19.14999962  30.59999847  51.24000168
C    20.17999840  31.12999916  50.41999817
C    21.51000023  30.85000038  50.59999847
C    21.94999886  30.10999870  51.72999954
C    20.98999977  29.61999893  52.57999802
C    19.59000015  29.82000160  52.36999893
C    15.39000034  29.93999863  51.79999924
C    14.81999969  29.20000076  52.85999680
C    13.52000046  28.71999931  52.71999741
C    23.42000008  29.92000198  52.00000000
H    23.75520134  30.52621651  52.84157181
H    19.07999992  28.78000069  54.12000275
H    17.46999931  31.25999832  50.14999771
H    19.88999939  31.81999969  49.61999893
H    22.22999954  31.38999939  49.99000168
H    21.40000153  29.05999947  53.40999985
H    13.22000027  28.08000183  53.54000092
H    24.00000000  30.15999985  51.10000229
H    23.64999962  28.87000084  52.23999786
