96

S    15.38000011  34.26000214  57.11999893
C    18.09000015  34.43000031  56.58000183
C    16.82999992  34.15999985  56.10000229
C    16.53000069  33.70999908  54.78000259
C    17.61000061  33.41999817  53.95000076
C    18.92000008  33.74000168  54.36999893
C    19.98999977  33.54000092  53.46000290
C    21.25999832  33.86000061  53.88000107
C    21.54999924  34.38000107  55.17000198
C    20.52000046  34.52999878  56.07999802
C    19.19000053  34.22000122  55.70000076
C    15.10000038  33.45999908  54.65999985
C    14.29999924  33.81999969  55.77000046
C    12.92000008  33.81000137  55.83000183
C    22.95000076  34.86000061  55.45000076
H    23.44354439  34.25201416  56.20819855
H    18.22999954  34.86000061  57.56999969
H    17.52000046  33.11999893  52.90999985
H    19.88999939  33.29999924  52.39999771
H    22.14999962  33.72000122  53.26000214
H    20.62000084  35.07999802  57.01000214
H    12.46999931  34.33000183  56.66999817
H    23.50000000  35.05000305  54.52000046
H    22.88999939  35.89999771  55.80999756
S    11.92000008  32.56000137  52.22000122
C     9.17000008  32.59000015  52.75000000
C    10.44999981  32.90999985  53.15000153
C    10.73999977  33.38000107  54.47000122
C     9.71000004  33.45999908  55.38999939
C     8.40999985  33.02000046  55.04000092
C     7.34000015  32.86999893  55.97000122
C     6.05999994  32.56999969  55.58000183
C     5.75000000  32.25000000  54.22999954
C     6.80000019  32.23999786  53.34000015
C     8.10000038  32.72000122  53.66000366
C    12.17000008  33.39999771  54.72000122
C    12.94999981  33.04000092  53.57999802
C    14.34000015  32.99000168  53.57999802
C     4.32999992  31.83000183  53.89999771
H     3.81171322  32.50448608  53.21841812
H     9.02999973  32.04000092  51.81999969
H     9.78999996  33.65000153  56.45000076
H     7.57999992  33.22000122  56.97000122
H     5.27999973  32.57999802  56.33999634
H     6.65000010  31.87999916  52.32999802
H    14.80000019  32.59999847  52.68000031
H     3.75000000  31.73999977  54.81999969
H     4.40000010  30.85000038  53.41999817
S    15.92000008  34.57999802  51.25999832
C    18.60999870  34.93999863  50.63999939
C    17.35000038  34.61000061  50.21999741
C    17.00000000  34.03000259  48.95000076
C    18.00000000  33.77000046  48.04000092
C    19.31999969  34.15000153  48.39000320
C    20.38999939  33.75999832  47.52999878
C    21.70000076  34.11999893  47.75000000
C    21.97999954  34.63000107  49.03999710
C    21.01000023  34.88999939  49.98000336
C    19.63000107  34.73999786  49.65999985
C    15.55999947  33.88000107  48.76999664
C    14.80999947  34.25000000  49.92000198
C    13.43000031  34.38999939  49.93999863
C    23.38999939  35.06999969  49.36000061
H    23.88730240  34.55848694  50.18410110
H    18.95000076  35.16999817  51.63999939
H    17.76000023  33.38999939  47.04999924
H    20.00000000  33.36999893  46.59000015
H    22.53999901  34.05999756  47.06999969
H    21.18000031  35.22999954  51.00000000
H    12.97999954  34.69000244  50.87999725
H    23.97999954  34.94999695  48.43999863
H    23.38000107  36.15000153  49.51000214
S    12.39999962  33.01000214  46.33999634
C     9.70000076  32.90000153  47.02000046
C    10.97000027  33.34000015  47.32999802
C    11.26999950  33.84999847  48.63999939
C    10.22999954  34.11999893  49.50000000
C     8.90999985  33.67000198  49.20999908
C     7.82000017  33.81000137  50.11000061
C     6.54999971  33.43000031  49.73999786
C     6.28000021  32.81999969  48.48999786
C     7.32999992  32.56999969  47.63000107
C     8.64000034  33.04000092  47.94000244
C    12.71000004  34.03000259  48.79000092
C    13.43999958  33.55999756  47.67000198
C    14.81999969  33.39999771  47.69000244
C     4.86000013  32.40999985  48.16999817
H     4.43374014  33.02097321  47.37431335
H     9.47000027  32.23999786  46.18000031
H    10.42000008  34.54999924  50.47000122
H     7.95000029  34.27999878  51.07999802
H     5.82000017  33.56999969  50.52999878
H     7.09000015  32.11999893  46.66999817
H    15.34999943  32.93999863  46.86000061
H     4.23999977  32.43000031  49.06999969
H     5.03000021  31.38000107  47.83000183
