96

S    15.52999973  34.04000092  57.09000015
C    18.15000153  34.45000076  56.11000061
C    16.88999939  33.91999817  55.94999695
C    16.48999977  33.34999847  54.69999695
C    17.40999985  33.29999924  53.67000198
C    18.76000023  33.68000031  53.86000061
C    19.84000015  33.45000076  52.95999908
C    21.17000198  33.63999939  53.25000000
C    21.51000023  34.22000122  54.50000000
C    20.51000214  34.52000046  55.40000153
C    19.13999939  34.29999924  55.10000229
C    15.06000042  33.09999847  54.61000061
C    14.42999935  33.47999954  55.81999969
C    13.04999924  33.63999939  55.86000061
C    22.90999985  34.69000244  54.82999802
H    23.40117836  34.04221344  55.55609131
H    18.40999985  34.86999893  57.08000183
H    17.14999962  32.76000214  52.76000214
H    19.52999878  32.97000122  52.04000092
H    21.87000084  33.68999863  52.42000198
H    20.79000092  34.93000031  56.37000275
H    12.60000038  34.02000046  56.77999878
H    23.54000092  34.80999756  53.94000244
H    22.86999893  35.70000076  55.27000046
S    11.77999973  32.31999969  52.35000229
C     9.11000061  32.34000015  53.09999847
C    10.39000034  32.80999756  53.34000015
C    10.82999992  33.38999939  54.56999969
C     9.85999966  33.54000092  55.54000092
C     8.52000046  33.13000107  55.37000275
C     7.49000025  33.22999954  56.35000229
C     6.21000004  32.76000214  56.17000198
C     5.86000013  32.18000031  54.93000031
C     6.80999994  32.06000137  53.94000244
C     8.15999985  32.44999695  54.15000153
C    12.28000069  33.38999939  54.71000290
C    12.93000031  32.79000092  53.61000061
C    14.30999947  32.63999939  53.52000427
C     4.41000032  31.88999939  54.61999893
H     3.98233891  32.42457581  53.77180481
H     8.78999996  31.84000015  52.18999863
H    10.14000034  33.80000305  56.56000137
H     7.69999981  33.72000122  57.29999924
H     5.46999979  32.95999908  56.93999863
H     6.48000002  31.77000046  52.95000076
H    14.72000027  32.30999756  52.56999969
H     3.88000011  32.02000046  55.56999969
H     4.34999990  30.81000137  54.40000153
S    15.65999985  34.50999832  51.13999939
C    18.38000107  34.71999741  50.38000107
C    17.10000038  34.27000046  50.13000107
C    16.75000000  33.67000198  48.88000107
C    17.76000023  33.48999786  47.95999908
C    19.09000015  33.94000244  48.13999939
C    20.19000053  33.68000031  47.25999832
C    21.44000053  34.13999939  47.61000061
C    21.68999863  34.94999695  48.75000000
C    20.66999817  35.12000275  49.65999985
C    19.37999916  34.59000015  49.38999939
C    15.31000042  33.65000153  48.67000198
C    14.57999992  34.08000183  49.80999756
C    13.19000053  34.18999863  49.85000229
C    23.11000061  35.40999985  48.97999573
H    23.64472389  34.85388565  49.75000381
H    18.60999870  35.38999939  51.20999908
H    17.57999992  32.75000000  47.16999817
H    19.93000031  33.20000076  46.32999802
H    22.23999977  33.75999832  46.98999786
H    20.72000122  35.68999863  50.59000015
H    12.71999931  34.47000122  50.79000092
H    23.69999886  35.36999893  48.06000137
H    23.09000015  36.45999908  49.27999878
S    12.10999966  32.70000076  46.33999634
C     9.40999985  32.55000305  47.02000046
C    10.67000008  33.01000214  47.31999969
C    11.02000046  33.59999847  48.57999802
C    10.01999950  33.68000031  49.52999878
C     8.69999981  33.27999878  49.22000122
C     7.64999962  33.45999908  50.15999603
C     6.35999966  33.08000183  49.85000229
C     5.96000004  32.63999939  48.55999756
C     6.98000002  32.40999985  47.67000198
C     8.34000015  32.70999908  47.94000244
C    12.44999981  33.84000015  48.70999908
C    13.17000008  33.43000031  47.56000137
C    14.55999947  33.34999847  47.52999878
C     4.50000000  32.29000092  48.37999725
H     4.00079441  32.89617920  47.62405777
H     9.18000031  32.20999908  46.00999832
H    10.29999924  34.06999969  50.50000000
H     7.81000042  34.05999756  51.04999924
H     5.66999960  33.11999893  50.68000031
H     6.74000025  31.84999847  46.77000046
H    15.17000008  33.27999878  46.63999939
H     3.97000027  32.54000092  49.31000137
H     4.36999989  31.21999931  48.22000122
