96

S    15.10000038  33.70999908  57.37999725
C    17.79000092  33.77999878  56.70999908
C    16.52000046  33.34999847  56.38999939
C    16.22999954  32.95999908  55.05000305
C    17.23999977  32.88000107  54.10999680
C    18.54999924  33.27999878  54.47000122
C    19.56999969  33.16999817  53.48999786
C    20.86999893  33.46999741  53.85000229
C    21.18000031  33.90999985  55.15999603
C    20.22999954  33.95999908  56.14999771
C    18.88000107  33.68000031  55.80999756
C    14.78999996  32.86999893  54.84000397
C    14.07999992  33.25999832  56.00000000
C    12.69000053  33.29000092  56.02000427
C    22.65000153  34.15999985  55.44000244
H    22.94228554  33.56117249  56.30260086
H    17.94999886  34.17000198  57.70999908
H    17.13000107  32.31999969  53.18000031
H    19.47000122  32.65000153  52.54000092
H    21.61999893  33.27000046  53.09000015
H    20.36999893  34.27000046  57.18000031
H    12.17000008  33.67000198  56.90000153
H    23.25000000  34.00000000  54.54000092
H    22.86999893  35.22999954  55.59999847
S    11.64999962  32.34999847  52.31999969
C     8.94999981  32.07999802  52.98999786
C    10.21999931  32.43999863  53.36000061
C    10.47999954  32.85000229  54.71000290
C     9.42000008  33.11000061  55.56000137
C     8.09000015  32.85000229  55.15999603
C     6.94000006  32.99000168  55.98999786
C     5.66999960  32.70000076  55.54999924
C     5.44000053  32.23999786  54.22999954
C     6.52999973  31.97999954  53.43000031
C     7.83999968  32.36999893  53.81999969
C    11.92000008  32.95999908  54.88999939
C    12.68000031  32.68000031  53.72000122
C    14.06000042  32.55000305  53.68999863
C     4.01999998  31.88999939  53.82999802
H     3.74225140  32.23184204  52.83295441
H     8.61999989  31.55999947  52.09000015
H     9.65999985  33.44000244  56.56999969
H     7.02000046  33.18000031  57.04999924
H     4.84000015  32.68000031  56.25000000
H     6.38000011  31.47000122  52.48000336
H    14.67000008  32.42000198  52.80000305
H     3.37000012  32.47000122  54.48999786
H     3.84999990  30.82999992  54.06000137
S    16.09000015  34.10000229  51.20999908
C    18.76000023  34.29000092  50.47999954
C    17.51000023  33.77000046  50.20000076
C    17.15999985  33.27999878  48.89999771
C    18.09999847  33.32999802  47.88999939
C    19.43000031  33.70999908  48.15000153
C    20.51000214  33.77999878  47.22000122
C    21.78999901  34.18000031  47.55000305
C    22.04000092  34.52999878  48.90999603
C    21.05999947  34.54999924  49.86999893
C    19.75000000  34.15999985  49.47999954
C    15.72000027  33.09999847  48.77999878
C    15.00000000  33.55999756  49.92000198
C    13.63000011  33.74000168  49.98000336
C    23.43000031  35.02999878  49.22999954
H    23.75588036  34.42074585  50.07303619
H    18.95000076  34.81999969  51.39999771
H    17.79000092  33.00000000  46.90000153
H    20.29000092  33.61000061  46.17000198
H    22.56000137  34.13000107  46.79999924
H    21.24000168  34.93999863  50.86999893
H    13.21000004  34.13000107  50.90999985
H    24.10000038  34.93999863  48.36999893
H    23.29999924  36.11000061  49.31000137
S    12.51999950  32.70000076  46.27999878
C     9.82999992  32.93000031  46.90999985
C    11.13000011  33.18000031  47.28000259
C    11.51000023  33.72999954  48.54999924
C    10.51000023  34.02000046  49.45999908
C     9.17000008  33.72999954  49.13999939
C     8.06999969  33.70999908  50.06000137
C     6.80999994  33.25999832  49.73999786
C     6.48999977  32.73999786  48.46000290
C     7.50999975  32.68000031  47.54000092
C     8.80999947  33.16999817  47.85999680
C    12.94000053  33.59000015  48.76999664
C    13.60000038  33.06000137  47.63999939
C    14.96999931  32.79000092  47.63999939
C     5.07000017  32.29999924  48.16999817
H     4.59430313  32.85379791  47.36060333
H     9.57999992  32.34999847  46.03000259
H    10.81999969  34.20999908  50.48999786
H     8.30000019  33.88999939  51.10000229
H     5.97000027  33.36999893  50.41999817
H     7.39000034  32.25000000  46.55000305
H    15.52000046  32.61000061  46.72000122
H     4.46999979  32.43000031  49.06999969
H     5.05999994  31.21999931  47.95999908
