96

S    15.15999985  33.74000168  56.93999863
C    17.86999893  33.81000137  56.30000305
C    16.59000015  33.46999741  55.93000031
C    16.28000069  32.97000122  54.62999725
C    17.31999969  32.68000031  53.76999664
C    18.63999939  33.04000092  54.13000107
C    19.70999908  32.88999939  53.20999908
C    20.96999931  33.36999893  53.47000122
C    21.22999954  34.05999756  54.68000031
C    20.23999977  34.22000122  55.61999893
C    18.90999985  33.77000046  55.34000015
C    14.84000015  32.86000061  54.43999863
C    14.11000061  33.34000015  55.56000137
C    12.72999954  33.47999954  55.65999985
C    22.65999985  34.47999954  54.91000366
H    23.14185905  33.76429749  55.57609940
H    17.93000031  34.27000046  57.29000092
H    17.13999939  32.13999939  52.84000015
H    19.52000046  32.43999863  52.23999786
H    21.70000076  33.18999863  52.68000031
H    20.48000145  34.70999908  56.56000137
H    12.11999989  33.87000275  56.46999741
H    23.12999916  34.59999847  53.93000031
H    22.67999840  35.47000122  55.37000275
S    11.68000031  31.94999886  52.14000320
C     8.94999981  32.09999847  52.83000183
C    10.26000023  32.40000153  53.09999847
C    10.60999966  33.11000061  54.29999924
C     9.64999962  33.27999878  55.28999710
C     8.30000019  32.95000076  55.05000305
C     7.30000019  33.02999878  56.04999924
C     5.98000002  32.76000214  55.76000214
C     5.60999966  32.14999771  54.52999878
C     6.60000038  31.87999916  53.61999893
C     7.94000053  32.34000015  53.79000092
C    12.05000019  33.18999863  54.47000122
C    12.76000023  32.70000076  53.34000015
C    14.14000034  32.52999878  53.27999878
C     4.19000006  31.75000000  54.22999954
H     3.70555568  32.31281281  53.43209076
H     8.71999931  31.53000069  51.93000031
H    10.01999950  33.44000244  56.30000305
H     7.48000050  33.31999969  57.08000183
H     5.19999981  33.02000046  56.46999741
H     6.32000017  31.51000023  52.63000107
H    14.60000038  32.22999954  52.34000397
H     3.58999991  31.97999954  55.13000107
H     4.13999987  30.66999817  54.05000305
S    12.35999966  30.05000114  49.36999893
C     9.67000008  29.56999969  49.99000168
C    11.00000000  29.37999916  50.28999710
C    11.51999950  28.75999832  51.46999741
C    10.59999943  28.36999893  52.43000031
C     9.22000027  28.48999977  52.12999725
C     8.27000046  28.05000114  53.09999847
C     6.93000031  28.19999886  52.84999847
C     6.48999977  28.84000015  51.65999985
C     7.32999992  29.26000214  50.65000153
C     8.71999931  29.07999992  50.91999817
C    12.94999981  28.95000076  51.66999817
C    13.56999969  29.64999962  50.59999847
C    14.92000008  29.99000168  50.54999924
C     5.03000021  29.18000031  51.49000168
H     4.63043165  28.45934868  50.77648544
H     9.39999962  30.09000015  49.06999969
H    10.88000107  28.00000000  53.40999985
H     8.56000042  27.63999939  54.06000137
H     6.21000004  28.05000114  53.64999771
H     7.02000046  29.61999893  49.68000031
H    15.31000042  30.65999985  49.79999924
H     4.44000006  29.03000069  52.41000366
H     4.85000038  30.22000122  51.18000031
S    16.26000023  28.57000160  54.00000000
C    18.93000031  29.03000069  53.37999725
C    17.61000061  29.13000107  53.00000000
C    17.17000008  29.70999908  51.77000046
C    18.06999969  30.20000076  50.83000183
C    19.43000031  30.10999870  51.19999695
C    20.31999969  30.72000122  50.27999878
C    21.63999939  30.86999893  50.65000153
C    22.10000038  30.34000015  51.88000107
C    21.27000046  29.61999893  52.70999908
C    19.86999893  29.56999969  52.45999908
C    15.73999977  29.54000092  51.59999847
C    15.10000038  28.92000008  52.70000076
C    13.76000023  28.54999924  52.74000168
C    23.47999954  30.75000000  52.34000397
H    23.95707703  29.95249939  52.90964508
H    19.23999977  28.48999977  54.27000046
H    17.77000046  30.52000046  49.84000397
H    19.88000107  31.18999863  49.40000153
H    22.13999939  31.68999863  50.14999771
H    21.52000046  29.40999985  53.75000000
H    13.30000019  28.06999969  53.60000229
H    23.32999992  31.60000038  53.01000214
H    24.04000092  31.04999924  51.44000244
