96

S    15.48999977  33.95000076  57.02999878
C    18.19000053  34.06999969  56.35000229
C    16.90000153  33.75000000  55.97999954
C    16.62999916  33.18999863  54.68999863
C    17.64999962  33.15000153  53.75000000
C    18.98999977  33.36000061  54.13999939
C    20.09000015  33.18000031  53.25000000
C    21.37000084  33.39999771  53.68999863
C    21.61999893  33.90999985  54.99000168
C    20.59999847  34.13999939  55.89000320
C    19.27000046  33.87000275  55.45999908
C    15.19000053  32.95000076  54.59000015
C    14.44000053  33.44000244  55.68999863
C    13.05999947  33.38000107  55.81999969
C    23.01000214  34.38999939  55.33000183
H    23.64489555  33.68376923  55.86502075
H    18.43000031  34.48999786  57.32999802
H    17.43999863  32.70999908  52.77999878
H    19.86999893  32.85000229  52.23999786
H    22.19000053  33.25999832  52.98999786
H    20.62000084  34.64999771  56.84999847
H    12.68000031  33.50000000  56.83000183
H    23.54999924  34.70999908  54.43000031
H    22.78000069  35.30999756  55.89000320
S    11.96000004  32.25000000  52.18999863
C     9.28999996  32.04000092  52.77000046
C    10.53999996  32.36999893  53.25000000
C    10.82999992  32.93999863  54.52999878
C     9.72000027  33.20000076  55.31000137
C     8.39999962  32.90000153  54.91000366
C     7.27999973  33.06999969  55.77999878
C     6.01999998  32.73999786  55.34999847
C     5.82000017  32.23999786  54.02999878
C     6.86999989  31.94999886  53.20000076
C     8.19000053  32.29999924  53.61999893
C    12.28000069  33.02000046  54.72000122
C    13.02000046  32.72000122  53.54999924
C    14.40000057  32.59999847  53.48999786
C     4.44999981  31.75000000  53.61999893
H     3.90177798  32.44061661  52.97921753
H     9.17000008  31.77999878  51.72000122
H     9.82999992  33.75000000  56.24000168
H     7.32999992  33.43000031  56.79999924
H     5.23999977  32.85000229  56.09000397
H     6.76999998  31.37000084  52.29000092
H    14.91000080  32.31999969  52.57999802
H     3.91000009  31.51000023  54.54999924
H     4.67000008  30.81999969  53.08000183
S    15.97000027  34.24000168  51.18000031
C    18.65999985  34.56999969  50.47999954
C    17.35999870  34.33000183  50.08999634
C    16.97000122  33.84000015  48.80000305
C    17.98999977  33.79000092  47.88000107
C    19.34999847  34.05999756  48.18000031
C    20.42000008  33.86000061  47.27000427
C    21.70999908  34.13000107  47.67000198
C    22.01000023  34.59999847  48.97999573
C    21.04999924  34.56000137  49.95999908
C    19.70000076  34.36999893  49.54000092
C    15.52999973  33.65000153  48.67000198
C    14.80999947  33.90999985  49.86999893
C    13.43999958  34.05999756  50.00000000
C    23.40999985  35.09000015  49.29000092
H    23.86446571  34.27338409  49.85097885
H    18.78000069  35.09000015  51.43000031
H    17.78000069  33.23999786  46.95999908
H    20.15000153  33.59000015  46.25000000
H    22.43999863  33.87000275  46.90999985
H    21.22999954  34.90999985  50.97000122
H    13.02999973  34.41999817  50.93999863
H    23.95000076  35.23999786  48.34000015
H    23.35000038  36.02000046  49.86000061
S    12.30000019  32.93999863  46.38999939
C     9.63000011  32.69000244  47.06999969
C    10.88000107  33.15000153  47.43000031
C    11.28000069  33.80000305  48.62999725
C    10.26000023  33.88999939  49.55999756
C     8.93999958  33.46999741  49.31999969
C     7.88999987  33.52000046  50.27999878
C     6.60000038  33.20000076  49.93000031
C     6.25000000  32.73999786  48.62999725
C     7.25000000  32.65000153  47.69000244
C     8.60000038  32.95000076  48.02000046
C    12.72999954  33.86000061  48.81000137
C    13.43000031  33.52000046  47.63000107
C    14.80999947  33.34999847  47.50999832
C     4.84000015  32.33000183  48.26000214
H     4.49056435  32.90763855  47.40423965
H     9.53999996  32.22999954  46.09000397
H    10.53999996  34.11000061  50.59000015
H     8.17000008  33.87000275  51.26999664
H     5.79999971  33.31999969  50.65000153
H     7.07999992  32.29999924  46.68000031
H    15.21999931  32.95999908  46.58000183
H     4.15000010  32.42000198  49.09999847
H     4.90999985  31.28999901  47.91999817
