96

S    15.08999920  34.02000046  57.14000320
C    17.85000038  33.81999969  56.49000168
C    16.52000046  33.65000153  56.17000198
C    16.14999962  33.22000122  54.86000061
C    17.09000015  32.81999969  53.93000031
C    18.46999931  32.93999863  54.22999954
C    19.47999954  32.56999969  53.29999924
C    20.81999969  32.79000092  53.53000259
C    21.14000130  33.55999756  54.68000031
C    20.19000053  33.84000015  55.63999939
C    18.81000137  33.51000214  55.50000000
C    14.70999908  33.11000061  54.66999817
C    14.00000000  33.45999908  55.84999847
C    12.61999989  33.54999924  55.91999817
C    22.56000137  33.97000122  54.99000168
H    22.97314262  33.37165833  55.80203629
H    18.17000008  34.22000122  57.44999695
H    16.76000023  32.55000305  52.93000031
H    19.17000008  32.16999817  52.34000397
H    21.61000061  32.36999893  52.91999817
H    20.52999878  34.34999847  56.53999710
H    12.05000019  33.95999908  56.75000000
H    23.19999886  33.90999985  54.09999847
H    22.60000038  35.04000092  55.20999908
S    11.46000004  32.09999847  52.41000366
C     8.76000023  32.29000092  52.97000122
C    10.05000019  32.54000092  53.39000320
C    10.42000008  33.06000137  54.66999817
C     9.36999989  33.27999878  55.54000092
C     8.01999950  32.99000168  55.20999908
C     6.94999981  33.11999893  56.13999939
C     5.65000010  32.86999893  55.77000046
C     5.33999968  32.29000092  54.51000214
C     6.35999966  32.20000076  53.59000397
C     7.71000004  32.52999878  53.88999939
C    11.87000084  33.15000153  54.80999756
C    12.56999969  32.70999908  53.64999771
C    13.94999981  32.66999817  53.57999802
C     3.98000002  31.76000214  54.12000275
H     3.51167130  32.42701340  53.39621735
H     8.57999992  31.86000061  51.98999786
H     9.65999985  33.65999985  56.51000214
H     7.17999983  33.62999725  57.06999969
H     4.88000011  33.29999924  56.40999603
H     6.02999973  31.73999977  52.64999771
H    14.53999996  32.29999924  52.74000168
H     3.33999991  31.60000038  55.00000000
H     4.18000031  30.78000069  53.67000198
S    15.59000015  34.27000046  51.40999603
C    18.34000015  34.20000076  50.76000214
C    17.02999878  33.90999985  50.44000244
C    16.72999954  33.38999939  49.13000107
C    17.75000000  33.09999847  48.23999786
C    19.06999969  33.47999954  48.55999756
C    20.05000114  33.46999741  47.51999664
C    21.34000015  33.82999802  47.80000305
C    21.68999863  34.31000137  49.09000015
C    20.75000000  34.41999817  50.08999634
C    19.40000153  34.06999969  49.82999802
C    15.29000092  33.45000076  48.92000198
C    14.53999996  33.97999954  50.00999832
C    13.15999985  34.01000214  50.07999802
C    23.11000061  34.72999954  49.38999939
H    23.55674934  34.14142609  50.19131088
H    18.47999954  34.66999817  51.72999954
H    17.50000000  32.66999817  47.27000427
H    19.68000031  33.31000137  46.50000000
H    22.04999924  33.77999878  46.97999954
H    21.01000023  34.80999756  51.06999969
H    12.57999992  34.04000092  51.00000000
H    23.81999969  34.75000000  48.54999924
H    23.13999939  35.81999969  49.52999878
S    12.18000031  32.69000244  46.45999908
C     9.46000004  32.57999802  47.09999847
C    10.72999954  32.99000168  47.43999863
C    11.02000046  33.52999878  48.73000336
C     9.94999981  33.77999878  49.56999969
C     8.61999989  33.39999771  49.29000092
C     7.49000025  33.68999863  50.12000275
C     6.25000000  33.23999786  49.73999786
C     6.05000019  32.45999908  48.57999802
C     7.11999989  32.20999908  47.74000168
C     8.39999962  32.73999786  48.02999878
C    12.46000099  33.65999985  48.92000198
C    13.21000004  33.29000092  47.77000046
C    14.57999992  33.06000137  47.77999878
C     4.69000006  31.87999916  48.29000092
H     4.14425230  32.58167648  47.65919876
H     9.21000004  32.04000092  46.18999863
H    10.05000019  34.25000000  50.54999924
H     7.65999985  34.18000031  51.07999802
H     5.46000004  33.40999985  50.47000122
H     6.94000006  31.59000015  46.86999893
H    15.00000000  32.61000061  46.88999939
H     4.11999989  31.81999969  49.22999954
H     4.76999998  30.96999931  47.68000031
