96

S    15.06999969  33.80000305  57.09000015
C    17.72999954  34.00000000  56.31999969
C    16.45000076  33.61999893  55.98999786
C    16.11999893  33.18999863  54.65999985
C    17.13999939  33.02999878  53.74000168
C    18.47999954  33.23999786  54.12000275
C    19.51000023  33.04000092  53.15999985
C    20.81000137  33.40999985  53.41999817
C    21.09999847  33.94000244  54.71000290
C    20.15999985  34.04000092  55.72000122
C    18.79999924  33.75000000  55.43000031
C    14.67000008  33.18000031  54.52999878
C    13.97999954  33.45999908  55.73999786
C    12.61000061  33.68000031  55.77000046
C    22.49000168  34.45999908  54.99000168
H    22.97444534  33.97555542  55.83778000
H    17.87999916  34.36000061  57.34000397
H    16.87999916  32.76000214  52.71999741
H    19.25000000  32.88999939  52.11000061
H    21.50000000  33.47999954  52.57999802
H    20.34000015  34.56000137  56.65999985
H    12.10000038  34.02000046  56.66999817
H    23.05999947  34.33000183  54.06000137
H    22.42000198  35.54999924  55.10000229
S    11.43000031  32.50000000  52.14000320
C     8.76000023  32.15999985  52.95000076
C    10.05000019  32.52999878  53.25000000
C    10.44000053  32.95999908  54.55999756
C     9.46000004  32.95999908  55.54000092
C     8.11999989  32.63999939  55.22999573
C     7.07000017  32.79000092  56.18999863
C     5.75000000  32.49000168  55.90999985
C     5.40000010  31.97999954  54.62999725
C     6.35999966  31.94000053  53.63999939
C     7.73000002  32.16999817  53.93000031
C    11.85999966  33.27000046  54.65999985
C    12.53000069  32.84000015  53.48999786
C    13.92000008  32.84000015  53.40999985
C     3.94000006  31.77000046  54.29000092
H     3.56212831  32.42593002  53.50573730
H     8.50000000  32.00000000  51.90999985
H     9.71000004  33.25000000  56.55000305
H     7.39000034  33.18000031  57.15000153
H     5.01999950  32.62000275  56.70000076
H     6.11999989  31.68000031  52.61000061
H    14.40999985  32.52000046  52.49000168
H     3.31999993  32.00000000  55.15999603
H     3.74000025  30.73999786  53.97999573
S    12.05999947  30.52999878  49.33000183
C     9.42000008  30.15999985  50.00999832
C    10.72999954  29.86999893  50.31000137
C    11.16000080  29.14999962  51.46999741
C    10.15999985  28.71999931  52.31999969
C     8.78000069  28.95999908  52.08000183
C     7.75000000  28.45999908  52.91999817
C     6.43000031  28.71000099  52.61000061
C     6.01999998  29.30999947  51.38999939
C     7.03999996  29.77999878  50.59000015
C     8.42000008  29.60000038  50.84000015
C    12.60000038  29.30999947  51.65000153
C    13.20000076  30.06000137  50.59999847
C    14.55999947  30.34000015  50.61000061
C     4.56999969  29.65999985  51.14999771
H     4.06847095  29.12981224  50.34038544
H     9.22999954  30.79000092  49.15000153
H    10.44999981  28.01000214  53.09000015
H     7.86999989  27.88000107  53.82999802
H     5.64000034  28.38000107  53.27000046
H     6.70000029  30.43999863  49.79000092
H    15.08999920  30.51000214  49.68000031
H     4.05000019  29.57999992  52.11999893
H     4.67000008  30.75000000  51.03000259
S    15.81999969  29.01000023  54.13000107
C    18.51000023  29.27999878  53.39000320
C    17.18000031  29.53000069  53.11000061
C    16.75000000  30.12000084  51.88000107
C    17.71999931  30.65000153  51.04999924
C    19.10000038  30.52000046  51.31000137
C    20.09000015  31.04999924  50.44000244
C    21.42000008  31.02000046  50.79999924
C    21.81999969  30.20000076  51.88000107
C    20.88000107  29.59000015  52.68000031
C    19.47999954  29.84000015  52.51999664
C    15.31000042  30.02000046  51.75000000
C    14.68999958  29.26000214  52.77999878
C    13.34000015  28.92000008  52.77000046
C    23.29000092  29.84999847  51.95000076
H    23.79711914  30.26426697  52.82138824
H    18.81999969  28.61999893  54.19000244
H    17.39999962  31.07000160  50.10000229
H    19.75000000  31.70999908  49.65000153
H    22.18000031  31.54999924  50.20999908
H    21.14999962  28.72999954  53.27999878
H    12.94000053  28.35000038  53.59000397
H    23.74000168  30.29999924  51.05999756
H    23.50000000  28.78000069  51.81000137
