96

S    15.47999954  33.88000107  57.04000092
C    18.15999985  33.88999939  56.37000275
C    16.88999939  33.48999786  56.03000259
C    16.50000000  32.88999939  54.79999924
C    17.47999954  32.77000046  53.82999802
C    18.81999969  33.04000092  54.20000076
C    19.85000038  32.68000031  53.27999878
C    21.11000061  33.16999817  53.52000427
C    21.54000092  33.84999847  54.68999863
C    20.56999969  34.04000092  55.63999939
C    19.19999886  33.70999908  55.41999817
C    15.05000019  32.85000229  54.61999893
C    14.37000084  33.38000107  55.73999786
C    12.98999977  33.43000031  55.77999878
C    22.95999908  34.36000061  54.84000397
H    23.48673820  33.74072266  55.56604767
H    18.30000114  34.38000107  57.31999969
H    17.25000000  32.44999695  52.81999969
H    19.60000038  32.20999908  52.32999802
H    21.77999878  33.06000137  52.67000198
H    20.95000076  34.47999954  56.56000137
H    12.44999981  33.65000153  56.70000076
H    23.55999947  34.34999847  53.92000198
H    22.86999893  35.38999939  55.19000244
S    11.82999992  32.13999939  52.22000122
C     9.11000061  31.98999786  52.88999939
C    10.39999962  32.29000092  53.27000046
C    10.78999996  32.81999969  54.54000092
C     9.81999969  33.09000015  55.47999954
C     8.47999954  32.72000122  55.19000244
C     7.46000004  32.83000183  56.17000198
C     6.17999983  32.43000031  55.86000061
C     5.80999947  31.83000183  54.62999725
C     6.80000019  31.73999977  53.68000031
C     8.11999989  32.21999741  53.88999939
C    12.23000050  32.97999954  54.68999863
C    12.94000053  32.59000015  53.53000259
C    14.32999992  32.44999695  53.48999786
C     4.41000032  31.28999901  54.45000076
H     3.89175844  31.81534004  53.64778900
H     8.85999966  31.40999985  52.01000214
H    10.08999920  33.61000061  56.38999939
H     7.69999981  33.16999817  57.16999817
H     5.51000023  32.57999802  56.70000076
H     6.60000038  31.17000198  52.77000046
H    14.81999969  32.06999969  52.60000229
H     4.01999998  31.42999840  55.47000122
H     4.50000000  30.20999908  54.31000137
S    15.57000065  34.22000122  51.09000397
C    18.20999908  34.05999756  50.54999924
C    16.97000122  33.58000183  50.20999908
C    16.59000015  33.02000046  48.95000076
C    17.57999992  32.97000122  47.97999954
C    18.89000130  33.38000107  48.31999969
C    19.85999870  33.18000031  47.29999924
C    21.17000198  33.54000092  47.54000092
C    21.59000015  33.97000122  48.81999969
C    20.63999939  34.20999908  49.79000092
C    19.26000023  33.94000244  49.59999847
C    15.14999962  33.13999939  48.75999832
C    14.42000008  33.68000031  49.86000061
C    13.04999924  33.86000061  49.86000061
C    22.98000145  34.52999878  49.03999710
H    23.61166954  33.89833069  49.66456985
H    18.27999878  34.47999954  51.55000305
H    17.40999985  32.43999863  47.04999924
H    19.61000061  32.97999954  46.26999664
H    21.78999901  33.52999878  46.65000153
H    20.81000137  34.56999969  50.79999924
H    12.61999989  34.20999908  50.79000092
H    23.54000092  34.61000061  48.09999847
H    22.93000031  35.56000137  49.40000153
S    11.98999977  32.34000015  46.35000229
C     9.28999996  32.36000061  47.04000092
C    10.57999992  32.70000076  47.36999893
C    10.90000057  33.27999878  48.63999939
C     9.89000034  33.52999878  49.54999924
C     8.56000042  33.11999893  49.29000092
C     7.51999950  33.13999939  50.27000046
C     6.19000006  32.93999863  49.97000122
C     5.95000029  32.40000153  48.68000031
C     6.90999985  32.25000000  47.70000076
C     8.27000046  32.56000137  48.00000000
C    12.34000015  33.47999954  48.70999908
C    13.05999947  33.04000092  47.57999802
C    14.44000053  32.88000107  47.57999802
C     4.55000019  31.97000122  48.30999756
H     4.10814953  32.61139679  47.54744720
H     9.03999996  31.97000122  46.04999924
H    10.08999920  34.01000214  50.50000000
H     7.88000011  33.34999847  51.26999664
H     5.32999992  33.02999878  50.61999893
H     6.65999985  31.88999939  46.70999908
H    14.93000031  32.52999878  46.68000031
H     3.88000011  31.93000031  49.18000031
H     4.57999992  30.95999908  47.87000275
