96

S    15.06999969  33.84000015  57.15000153
C    17.77000046  33.77999878  56.46999741
C    16.46999931  33.48999786  56.11999893
C    16.07999992  33.02999878  54.81999969
C    17.04000092  32.72000122  53.87000275
C    18.39999962  32.85000229  54.23999786
C    19.42000008  32.72999954  53.26000214
C    20.72000122  33.06999969  53.54000092
C    21.02999878  33.58000183  54.82999802
C    20.09000015  33.77999878  55.81999969
C    18.75000000  33.39999771  55.52000046
C    14.65000057  32.83000183  54.66999817
C    13.99000072  33.27999878  55.84999847
C    12.61000061  33.22999954  55.93000031
C    22.39000130  34.20999908  55.02999878
H    23.11408806  33.67048264  55.64050674
H    18.04000092  34.22000122  57.42000198
H    16.82999992  32.43000031  52.84000015
H    19.23999977  32.66999817  52.18999863
H    21.47999954  32.95999908  52.76000214
H    20.34000015  34.27000046  56.76000214
H    12.02000046  33.70999908  56.70000076
H    22.79999924  34.43999863  54.05000305
H    22.19000053  35.15000153  55.54999924
S    11.36999989  31.86000061  52.41000366
C     8.69999981  31.87999916  53.15999985
C     9.98999977  32.23999786  53.47000122
C    10.39000034  32.79999924  54.72000122
C     9.44000053  33.06000137  55.68999863
C     8.10000038  32.72999954  55.38999939
C     7.11000013  32.86999893  56.40999603
C     5.78999996  32.57999802  56.16000366
C     5.40000010  32.04999924  54.89999771
C     6.32999992  31.87000084  53.90999603
C     7.71000004  32.14999771  54.13999939
C    11.84000015  32.79999924  54.84000397
C    12.51999950  32.31999969  53.68999863
C    13.90999985  32.34000015  53.59000397
C     3.91000009  31.80000114  54.75000000
H     3.57659841  32.28946304  53.83492279
H     8.55000019  31.54999924  52.14000320
H     9.61999989  33.47999954  56.68000031
H     7.36999989  33.31000137  57.36999893
H     5.03000021  32.79999924  56.90999985
H     5.95000029  31.55999947  52.94000244
H    14.29999924  32.07999802  52.61000061
H     3.32999992  32.04999924  55.65000153
H     3.82999992  30.72000122  54.65000153
S    15.62000084  34.06999969  51.23000336
C    18.30999947  34.20999908  50.38999939
C    17.00000000  33.87000275  50.13000107
C    16.62999916  33.29999924  48.86000061
C    17.64000130  32.90999985  48.00000000
C    19.00000000  33.18999863  48.26000214
C    20.05000114  32.93999863  47.31999969
C    21.31999969  33.23999786  47.72999573
C    21.64999962  33.72999954  49.02999878
C    20.68000031  34.02000046  49.94999695
C    19.34000015  33.79000092  49.52000046
C    15.19000053  33.13000107  48.79000092
C    14.50000000  33.55999756  49.94999695
C    13.12000084  33.75000000  50.05000305
C    23.05000114  34.22000122  49.34000015
H    23.41906548  33.65930557  50.19878387
H    18.50000000  34.69000244  51.33999634
H    17.35999870  32.44999695  47.04999924
H    19.79999924  32.62000275  46.31999969
H    22.15999985  33.08000183  47.06999969
H    20.73999786  34.54999924  50.90000153
H    12.64999962  33.81999969  51.02000427
H    23.80000114  34.05999756  48.55999756
H    22.98000145  35.29000092  49.54000092
S    11.97999954  32.61000061  46.44000244
C     9.32999992  32.31999969  47.22000122
C    10.59000015  32.79999924  47.52999878
C    10.95000076  33.47999954  48.74000168
C     9.92999935  33.62999725  49.65999985
C     8.61999989  33.15999985  49.43000031
C     7.55999994  33.32999802  50.37000275
C     6.28999996  32.80999756  50.19000244
C     6.01000023  32.11000061  48.99000168
C     6.96000004  32.09999847  47.98999786
C     8.30999947  32.50000000  48.18999863
C    12.39999962  33.59999847  48.86000061
C    13.09999943  33.13999939  47.70999908
C    14.44000053  32.81999969  47.64999771
C     4.55999994  31.80000114  48.69999695
H     4.15448427  32.49008942  47.96010971
H     9.06999969  31.94999886  46.24000168
H    10.06999969  33.97000122  50.68999863
H     7.82000017  33.94000244  51.23000336
H     5.46999979  33.04999924  50.86999893
H     6.69000053  31.84999847  46.97000122
H    14.93999958  32.52000046  46.72999954
H     3.91999984  31.97000122  49.58000183
H     4.51999998  30.73999786  48.43999863
