96

S    15.67000008  33.97000122  56.86000061
C    18.36000061  34.20000076  56.04000092
C    17.07999992  33.72999954  55.81999969
C    16.70999908  33.27000046  54.52000046
C    17.78000069  33.11000061  53.64999771
C    19.11999893  33.52000046  53.85000229
C    20.22000122  33.40999985  52.95000076
C    21.48999977  33.75999832  53.34000015
C    21.78999901  34.31999969  54.61000061
C    20.75000000  34.50999832  55.48999786
C    19.43000031  34.11000061  55.12000275
C    15.26999950  33.18000031  54.36999893
C    14.57999992  33.70999908  55.48999786
C    13.19000053  33.81000137  55.56000137
C    23.22000122  34.56000137  55.06000137
H    23.55482292  33.98296356  55.92198944
H    18.60000038  34.79999924  56.91999817
H    17.51000023  32.65999985  52.69000244
H    20.00000000  33.04000092  51.95000076
H    22.23999977  33.47999954  52.61000061
H    20.84000015  35.11000061  56.38999939
H    12.64000034  34.01000214  56.47999573
H    23.87000084  34.31000137  54.20999908
H    23.31999969  35.63000107  55.27999878
S    11.97000027  32.31999969  52.09999847
C     9.26999950  32.68000031  52.75000000
C    10.59000015  32.79999924  53.11000061
C    11.00000000  33.22000122  54.40999985
C    10.06999969  33.58000183  55.37000275
C     8.73000050  33.25000000  55.06999969
C     7.77999973  33.23999786  56.13999939
C     6.46000004  32.93000031  55.90999985
C     6.10000038  32.47000122  54.61000061
C     6.94999981  32.43999863  53.53000259
C     8.28999996  32.84000015  53.75999832
C    12.44999981  33.38999939  54.45000076
C    13.12999916  32.93000031  53.29999924
C    14.51000023  32.90999985  53.22000122
C     4.72000027  31.86000061  54.45999908
H     4.02647448  32.37477875  53.79507446
H     8.96000004  32.27999878  51.79000092
H    10.26000023  33.86000061  56.40999603
H     8.14999962  33.25999832  57.15999985
H     5.82999992  32.70999908  56.76000214
H     6.69000053  32.00999832  52.56999969
H    15.01000023  32.65999985  52.28000259
H     4.36999989  31.86000061  55.50000000
H     4.69999981  30.82999992  54.09000015
S    15.62000084  34.77000046  50.91999817
C    18.30999947  34.79999924  50.15999603
C    17.02000046  34.36999893  49.91000366
C    16.63999939  33.65999985  48.72000122
C    17.61000061  33.45000076  47.76000214
C    18.96000099  33.74000168  48.06000137
C    20.00999832  33.47999954  47.14000320
C    21.32999802  33.79000092  47.38999939
C    21.70000076  34.41999817  48.61000061
C    20.71000099  34.69000244  49.52999878
C    19.34999847  34.34999847  49.31000137
C    15.19000053  33.61999893  48.57999802
C    14.50000000  34.22000122  49.65999985
C    13.12000084  34.36000061  49.72999954
C    23.12999916  34.88999939  48.76999664
H    23.69993210  34.32006454  49.50378799
H    18.59000015  35.52999878  50.91999817
H    17.38000107  33.16999817  46.72999954
H    19.69000053  33.15000153  46.14999771
H    22.13999939  33.58000183  46.70000076
H    20.86999893  35.43000031  50.31000137
H    12.76000023  34.77000046  50.68000031
H    23.61000061  35.00999832  47.80000305
H    23.12999916  35.95000076  49.05000305
S    11.92000008  32.65000153  46.43000031
C     9.23999977  32.72000122  47.05999756
C    10.52000046  33.02999878  47.44999695
C    10.88000107  33.68999863  48.67000198
C     9.82999992  33.88999939  49.54000092
C     8.47999954  33.62999725  49.20000076
C     7.42000008  33.79000092  50.13999939
C     6.11999989  33.41999817  49.84000397
C     5.78999996  32.93000031  48.55999756
C     6.80999994  32.72999954  47.64999771
C     8.15999985  33.04999924  47.91999817
C    12.32999992  33.87000275  48.68000031
C    13.05999947  33.31000137  47.61000061
C    14.44000053  33.18999863  47.48000336
C     4.39000034  32.42000198  48.31999969
H     3.89826322  33.03289032  47.56457520
H     9.07999992  32.20999908  46.11000061
H    10.05000019  34.24000168  50.54000092
H     7.69000006  34.00000000  51.17000198
H     5.36999989  33.54999924  50.61999893
H     6.65999985  32.21999741  46.70000076
H    14.98999977  32.81999969  46.62000275
H     3.81000018  32.42000198  49.25000000
H     4.46999979  31.38999939  47.95999908
