96

S    15.08999920  33.91999817  56.90999985
C    17.85000038  33.97999954  56.24000168
C    16.57999992  33.47999954  56.06999969
C    16.26000023  32.70000076  54.91000366
C    17.26000023  32.52000046  53.96999741
C    18.56999969  33.02000046  54.12000275
C    19.57999992  32.73999786  53.15000153
C    20.86000061  33.20999908  53.33000183
C    21.21999931  34.00000000  54.45000076
C    20.23999977  34.20000076  55.40000153
C    18.92000008  33.67000198  55.34999847
C    14.82999992  32.59000015  54.66999817
C    14.04000092  33.16999817  55.68999863
C    12.64999962  33.23999786  55.65999985
C    22.62000084  34.47999954  54.75000000
H    23.23366356  33.74502945  55.27090073
H    17.98999977  34.70000076  57.04000092
H    17.09000015  32.04000092  53.01000214
H    19.18000031  32.30999756  52.22999954
H    21.53000069  32.95000076  52.51999664
H    20.48999977  34.84000015  56.24000168
H    12.06999969  33.47999954  56.53999710
H    23.12000084  34.86000061  53.86000061
H    22.52000046  35.35000229  55.41999817
S    11.65999985  31.55999947  52.25000000
C     8.93000031  31.57999992  52.93000031
C    10.22999954  31.93000031  53.22999954
C    10.53999996  32.56999969  54.47999954
C     9.55000019  32.79999924  55.41999817
C     8.23000050  32.40000153  55.13999939
C     7.17000008  32.76000214  56.02000427
C     5.88000011  32.42000198  55.66999817
C     5.55000019  31.59000015  54.56999969
C     6.57999992  31.31000137  53.68999863
C     7.92999983  31.70000076  53.92000198
C    11.97999954  32.76000214  54.52999878
C    12.76000023  32.25000000  53.46000290
C    14.14000034  32.13000107  53.54000092
C     4.13999987  31.19999886  54.20999908
H     3.68538094  31.97427368  53.59200287
H     8.59000015  31.07999992  52.02000046
H     9.77999973  33.25000000  56.38999939
H     7.48000050  33.22999954  56.95000076
H     5.03000021  32.68000031  56.30000305
H     6.28000021  30.86999893  52.74000168
H    14.70000076  31.76000214  52.68000031
H     3.56999993  30.94000053  55.11000061
H     4.26999998  30.31999969  53.56999969
S    12.15000057  29.56000137  49.25000000
C     9.52000046  29.02000046  50.02999878
C    10.86999989  28.82999802  50.24000168
C    11.36999989  28.25000000  51.45000076
C    10.47999954  27.79000092  52.41000366
C     9.09000015  27.90999985  52.18000031
C     8.09000015  27.63999939  53.15000153
C     6.74000025  27.69000053  52.87000275
C     6.30000019  28.31999969  51.68000031
C     7.21000004  28.80000114  50.77000046
C     8.59000015  28.50000000  50.96000290
C    12.76999950  28.52999878  51.69000244
C    13.28999996  29.25000000  50.58000183
C    14.60999966  29.69000053  50.51000214
C     4.82999992  28.64999962  51.50000000
H     4.42469168  28.16647339  50.61116409
H     9.32999992  29.70000076  49.20000076
H    10.81999969  27.43000031  53.37999725
H     8.34999943  27.20000076  54.10999680
H     6.05000019  27.23999977  53.57999802
H     7.03000021  29.47999954  49.93999863
H    15.03999901  30.10000038  49.59999847
H     4.26000023  28.32999992  52.37999725
H     4.78999996  29.73999977  51.39999771
S    16.21000099  28.22999954  53.86000061
C    18.79999924  28.85999870  53.16999817
C    17.46000099  29.04999924  52.90999985
C    16.87000084  29.56000137  51.70999908
C    17.78000069  30.06000137  50.79000092
C    19.17000008  29.96000099  51.00000000
C    20.10000038  30.52000046  50.07999802
C    21.45999908  30.58000183  50.27000046
C    21.94000053  30.06000137  51.50000000
C    21.11000061  29.43000031  52.38999939
C    19.70000076  29.40999985  52.22999954
C    15.43000031  29.34999847  51.59000015
C    14.93999958  28.59999847  52.68000031
C    13.60000038  28.22000122  52.77000046
C    23.38000107  30.27000046  51.91999817
H    23.68482018  29.88011360  52.89117050
H    19.13999939  28.34000015  54.06000137
H    17.47999954  30.48000145  49.82999802
H    19.63000107  30.92000008  49.18000031
H    22.04999924  31.09000015  49.51000214
H    21.38999939  28.95000076  53.33000183
H    13.35000038  27.63999939  53.66000366
H    23.61999893  31.34000015  51.93000031
H    23.92999840  29.77999878  51.11999893
