96

S    15.14999962  33.95000076  57.39999771
C    17.89999962  33.94000244  56.88999939
C    16.61999893  33.63999939  56.45999908
C    16.31000137  33.09999847  55.18000031
C    17.31999969  32.86000061  54.26000214
C    18.64999962  33.18000031  54.61999893
C    19.73999977  33.00000000  53.72000122
C    21.02999878  33.34999847  54.06999969
C    21.27000046  34.03000259  55.30000305
C    20.23999977  34.18000031  56.19999695
C    18.90999985  33.75999832  55.90999985
C    14.88000011  33.11999893  54.89999771
C    14.11000061  33.59000015  56.00000000
C    12.72999954  33.72000122  55.94999695
C    22.67999840  34.45999908  55.61000061
H    23.22850227  33.79752350  56.27960205
H    18.12000084  34.40999985  57.84000015
H    17.14999962  32.34999847  53.31999969
H    19.52999878  32.40999985  52.84000015
H    21.88999939  33.25999832  53.43000031
H    20.43999863  34.59999847  57.18999863
H    12.20000076  33.75999832  56.88999939
H    23.26000023  34.34000015  54.68000031
H    22.69000053  35.47999954  56.00999832
S    11.79999924  31.87000084  52.60000229
C     9.06000042  31.84999847  53.16999817
C    10.31999969  32.27999878  53.50000000
C    10.64000034  33.04000092  54.66999817
C     9.65999985  33.06999969  55.65000153
C     8.32999992  32.65999985  55.38999939
C     7.27999973  32.68000031  56.35000229
C     5.98000002  32.34000015  56.05999756
C     5.73000002  31.70000076  54.81999969
C     6.76000023  31.42000008  53.94000244
C     8.03999996  31.98999786  54.13999939
C    12.05000019  33.38000107  54.77000427
C    12.81000042  32.79000092  53.73000336
C    14.19000053  32.62000275  53.79000092
C     4.30999994  31.31999969  54.47000122
H     3.90252686  32.03486633  53.75513458
H     8.82000065  31.35000038  52.22999954
H     9.88000011  33.45999908  56.63999939
H     7.59999990  33.04999924  57.31999969
H     5.14999962  32.55000305  56.72000122
H     6.63999987  30.71000099  53.13000107
H    14.73000050  32.13999939  52.98999786
H     3.58000016  31.19999886  55.27999878
H     4.19000006  30.36000061  53.95999908
S    12.23000050  30.23999977  49.51000214
C     9.61000061  29.61000061  50.06999969
C    10.93000031  29.40999985  50.40000153
C    11.38000011  28.64999962  51.52999878
C    10.38000011  28.15999985  52.35000229
C     9.01000023  28.34000015  52.05999756
C     8.00000000  27.78000069  52.88999939
C     6.65999985  27.90999985  52.62000275
C     6.28000021  28.75999832  51.53999710
C     7.20000029  29.27999878  50.65999985
C     8.59000015  29.11000061  50.91999817
C    12.79999924  28.85999870  51.77000046
C    13.35000038  29.72999954  50.77999878
C    14.65000057  30.23999977  50.76000214
C     4.81999969  29.06999969  51.30000305
H     4.31389141  28.50686455  50.51588821
H     9.27999973  30.12000084  49.16999817
H    10.59999943  27.56999969  53.22999954
H     8.25000000  27.09000015  53.69999695
H     5.92000008  27.44999886  53.27000046
H     6.94000006  29.64999962  49.66999817
H    14.98999977  30.96999931  50.02999878
H     4.32999992  28.87000084  52.25999832
H     4.88000011  30.13000107  51.05999756
S    16.11999893  28.64999962  54.08000183
C    18.73999977  29.07999992  53.26000214
C    17.40999985  29.41999817  53.13000107
C    16.87000084  29.99000168  51.93000031
C    17.77000046  30.43000031  50.97000122
C    19.17000008  30.36999893  51.19999695
C    20.10999870  30.86999893  50.26000214
C    21.45000076  30.86999893  50.56000137
C    21.93000031  30.26000023  51.75000000
C    21.05999947  29.70000076  52.64999771
C    19.65999985  29.70999908  52.37999725
C    15.43000031  29.80999947  51.83000183
C    14.88999939  29.00000000  52.85999680
C    13.57999992  28.52999878  52.88000107
C    23.42000008  30.13999939  51.95999908
H    23.69046593  29.99764824  53.00627136
H    19.09000015  28.47999954  54.09000015
H    17.46000099  30.95000076  50.06999969
H    19.76000023  31.24000168  49.29999924
H    22.20999908  31.25000000  49.87999725
H    21.42000008  29.04000092  53.43999863
H    13.28999996  27.79000092  53.61999893
H    23.80000114  31.04999924  51.49000168
H    23.75000000  29.30999947  51.31999969
