96

S    15.19000053  33.90000153  56.84000015
C    17.88999939  34.04999924  56.13999939
C    16.61999893  33.61999893  55.83000183
C    16.26000023  32.99000168  54.59000015
C    17.22999954  32.90000153  53.61999893
C    18.55999947  33.29000092  53.92000198
C    19.57999992  33.18000031  52.93000031
C    20.88999939  33.54000092  53.18000031
C    21.21000099  34.15999985  54.40999985
C    20.23999977  34.36000061  55.37000275
C    18.89999962  33.94000244  55.15999603
C    14.80999947  32.90999985  54.40000153
C    14.09999943  33.36000061  55.54999924
C    12.71999931  33.50000000  55.61000061
C    22.65000153  34.56000137  54.64000320
H    23.14746284  33.87065887  55.32223511
H    18.01000023  34.61999893  57.05999756
H    16.94000053  32.65999985  52.60000229
H    19.30999947  32.73999786  51.97999954
H    21.70000076  33.25999832  52.51999664
H    20.52000046  34.95999908  56.24000168
H    12.27000046  33.69999695  56.58000183
H    23.19999886  34.50000000  53.68999863
H    22.67000008  35.56999969  55.06000137
S    11.51000023  32.45999908  52.02999878
C     8.78999996  32.62000275  52.70000076
C    10.10000038  32.90000153  53.01000214
C    10.50000000  33.36999893  54.29999924
C     9.57999992  33.31000137  55.31999969
C     8.23000050  33.00000000  55.00999832
C     7.14999962  33.04999924  55.93000031
C     5.88999987  32.57999802  55.65000153
C     5.50000000  32.15999985  54.34999847
C     6.47000027  32.16999817  53.37999725
C     7.81000042  32.54000092  53.70999908
C    11.95000076  33.40999985  54.45000076
C    12.64999962  32.90999985  53.31999969
C    14.01000023  32.63999939  53.29000092
C     4.07999992  31.71999931  54.05000305
H     3.56789064  32.36013794  53.33162689
H     8.52999973  32.29000092  51.69000244
H     9.68999958  33.61000061  56.36000061
H     7.37999964  33.36999893  56.93999863
H     5.07999992  32.59000015  56.38000107
H     6.25000000  31.91999817  52.35000229
H    14.37000084  32.34000015  52.30999756
H     3.47000003  31.80000114  54.95999908
H     4.07000017  30.71000099  53.63999939
S    15.50000000  34.43999863  50.89000320
C    18.20999908  34.57999802  50.19000244
C    16.92000008  34.27999878  49.82999802
C    16.59000015  33.68000031  48.56999969
C    17.63000107  33.54999924  47.67000198
C    18.96000099  33.84000015  48.06000137
C    20.02000046  33.68999863  47.11999893
C    21.32999802  34.04000092  47.36999893
C    21.63999939  34.63000107  48.61999893
C    20.68000031  34.71999741  49.59999847
C    19.32999992  34.34000015  49.34999847
C    15.14999962  33.48999786  48.40999985
C    14.44000053  33.90999985  49.56999969
C    13.07000065  34.08000183  49.66999817
C    23.06999969  35.07999802  48.88000107
H    23.56354332  34.47200775  49.63819885
H    18.35000038  35.06999969  51.14999771
H    17.48999977  32.86000061  46.84000015
H    19.76000023  33.27999878  46.14999771
H    22.06999969  33.87000275  46.59000015
H    20.81999969  35.23999786  50.54000092
H    12.65999985  34.34000015  50.65000153
H    23.78000069  35.29000092  48.06999969
H    22.90999985  36.04999924  49.36999893
S    11.96000004  32.36999893  46.29000092
C     9.23999977  32.47999954  46.81000137
C    10.51000023  32.79000092  47.22999954
C    10.84000015  33.40999985  48.47000122
C     9.78999996  33.72999954  49.31000137
C     8.47000027  33.29999924  48.99000168
C     7.37999964  33.72999954  49.79000092
C     6.07999992  33.36000061  49.50000000
C     5.86000013  32.56999969  48.34999847
C     6.84000015  32.31999969  47.41000366
C     8.17000008  32.73999786  47.70000076
C    12.28000069  33.61000061  48.61999893
C    13.01000023  33.06999969  47.52999878
C    14.37999916  33.08000183  47.31999969
C     4.46000004  32.07999802  48.04000092
H     4.10277557  32.58011627  47.13979340
H     9.13000011  32.19000244  45.77000046
H    10.03000069  34.29999924  50.20000076
H     7.46000004  34.33000183  50.68999863
H     5.25000000  33.75999832  50.07999802
H     6.65000010  31.78999901  46.49000168
H    14.88000011  32.70999908  46.42000198
H     3.86999989  32.25000000  48.95000076
H     4.57999992  31.01000023  47.81999969
