96

S    15.31999969  33.91999817  56.97999954
C    17.97999954  34.02000046  56.32999802
C    16.72999954  33.59999847  55.96000290
C    16.36999893  33.13999939  54.65000153
C    17.35999870  33.15000153  53.69999695
C    18.65999985  33.62999725  53.97999573
C    19.72999954  33.59000015  53.04000092
C    21.01000023  33.91999817  53.40999985
C    21.31000137  34.40000153  54.72000122
C    20.29999924  34.45999908  55.65000153
C    18.97999954  34.04000092  55.31999969
C    14.91000080  33.11000061  54.54999924
C    14.17000008  33.48999786  55.70000076
C    12.79000092  33.54000092  55.73999786
C    22.78000069  34.57999802  54.99000168
H    23.10822296  33.85219574  55.73207474
H    18.12999916  34.56999969  57.25999832
H    17.27000046  32.70999908  52.70999908
H    19.47000122  33.29000092  52.02999878
H    21.86000061  33.65999985  52.78999710
H    20.52999878  34.68000031  56.69000244
H    12.30000019  33.61999893  56.70000076
H    23.43000031  34.77000046  54.12000275
H    22.73999977  35.61000061  55.37000275
S    11.54000092  32.50999832  52.15000153
C     8.85999966  32.36000061  52.94000244
C    10.15999985  32.72999954  53.22999954
C    10.57000065  33.22000122  54.52000046
C     9.59000015  33.39999771  55.47999954
C     8.25000000  33.04000092  55.21999741
C     7.22000027  33.11999893  56.20999908
C     5.92999983  32.75000000  55.90000153
C     5.51999998  32.20999908  54.65999985
C     6.51000023  32.14999771  53.69999695
C     7.86000013  32.56999969  53.92000198
C    12.01000023  33.34999847  54.58000183
C    12.71000004  32.97000122  53.40999985
C    14.09000015  32.86000061  53.43999863
C     4.07000017  32.06000137  54.27999878
H     3.77713752  32.73144150  53.47284317
H     8.64000034  31.93000031  51.97000122
H     9.86999989  33.75000000  56.46999741
H     7.46000004  33.59000015  57.15999985
H     5.21000004  33.02000046  56.66999817
H     6.23000050  31.93000031  52.68000031
H    14.68999958  32.68000031  52.55000305
H     3.45000005  32.21999741  55.17000198
H     3.89999986  31.02000046  53.97999573
S    12.17000008  30.61000061  49.29000092
C     9.52999973  30.19000053  49.99000168
C    10.85000038  29.92000198  50.27000046
C    11.32999992  29.30000114  51.46999741
C    10.39999962  28.71000099  52.29999924
C     9.02000046  28.92000008  52.04999924
C     8.03999996  28.38999939  52.94000244
C     6.70000029  28.61999893  52.72999573
C     6.26999950  29.38999939  51.62000275
C     7.18999958  29.87999916  50.72999954
C     8.57999992  29.63999939  50.89000320
C    12.76999950  29.50000000  51.60999680
C    13.36999989  30.20999908  50.54000092
C    14.70999908  30.58000183  50.51000214
C     4.79999971  29.71999931  51.46999741
H     4.38262177  29.38043785  50.52205658
H     9.22999954  30.90999985  49.22000122
H    10.81999969  28.15999985  53.13999939
H     8.43999958  27.84000015  53.77999878
H     5.96000004  28.19999886  53.40000153
H     6.91999960  30.59000015  49.94999695
H    15.10000038  31.07000160  49.61999893
H     4.28999996  29.23000145  52.30999756
H     4.59000015  30.79999924  51.47999573
S    16.13999939  28.92000008  53.85000229
C    18.79999924  29.59000015  53.22999954
C    17.45000076  29.70999908  52.95999908
C    16.95000076  30.29999924  51.76000214
C    17.88999939  30.85000038  50.90000153
C    19.27999878  30.79000092  51.11000061
C    20.22000122  31.37000084  50.20999908
C    21.56999969  31.25000000  50.47999954
C    22.00000000  30.56999969  51.65000153
C    21.12999916  29.96999931  52.51999664
C    19.72999954  30.05000114  52.27000427
C    15.52000046  30.17000008  51.58000183
C    14.94999981  29.38999939  52.62000275
C    13.57999992  29.13000107  52.68000031
C    23.45999908  30.72000122  52.01000214
H    23.87405205  30.13461494  52.83096695
H    19.14999962  29.06999969  54.12000275
H    17.54999924  31.45000076  50.06000137
H    19.86999893  32.11999893  49.52000046
H    22.34999847  31.80000114  49.95999908
H    21.45000076  29.46000099  53.43000031
H    13.07999992  28.82999802  53.60000229
H    23.57000160  31.78999901  52.21000290
H    24.09000015  30.55999947  51.11999893
