96

S    15.38000011  33.72999954  56.91999817
C    18.02000046  34.00000000  56.13999939
C    16.76000023  33.55999756  55.81999969
C    16.35000038  33.02999878  54.54999924
C    17.38000107  32.86000061  53.63999939
C    18.63999939  33.47999954  53.77999878
C    19.70999908  33.39999771  52.84999847
C    20.96999931  33.88999939  53.11000061
C    21.28999901  34.26000214  54.43999863
C    20.35000038  34.18999863  55.45000076
C    19.00000000  33.88999939  55.12000275
C    14.92000008  32.76000214  54.48999786
C    14.25000000  33.20000076  55.65999985
C    12.88000011  33.45999908  55.66999817
C    22.73999977  34.64999771  54.59999847
H    23.12454033  34.70696640  55.61832047
H    18.15000153  34.61000061  57.02999878
H    17.13000107  32.23999786  52.78999710
H    19.37999916  32.93999863  51.91999817
H    21.71999931  33.91999817  52.32999802
H    20.59000015  34.33000183  56.50000000
H    12.38999939  33.75999832  56.59000015
H    23.29000092  33.75999832  54.25000000
H    23.13999939  35.40999985  53.90999603
S    11.63000011  32.11000061  52.14000320
C     8.93999958  32.21999741  52.84000015
C    10.24000072  32.56999969  53.13999939
C    10.65999985  33.01000214  54.43999863
C     9.68999958  33.38999939  55.34999847
C     8.34000015  33.02000046  55.11000061
C     7.44000006  33.08000183  56.20999908
C     6.14000034  32.66999817  56.00000000
C     5.75000000  32.02999878  54.79000092
C     6.61999989  32.00000000  53.73000336
C     7.96999979  32.43999863  53.85000229
C    12.10000038  33.09999847  54.55999756
C    12.76000023  32.61000061  53.40000153
C    14.14000034  32.43000031  53.37999725
C     4.32000017  31.63000107  54.52000046
H     3.91359138  32.05066681  53.60023117
H     8.65999985  31.87999916  51.84999847
H     9.94000053  33.69999695  56.36000061
H     7.77999973  33.38000107  57.19999695
H     5.46999979  32.88000107  56.83000183
H     6.24000025  31.70999908  52.75000000
H    14.63999939  32.27000046  52.43000031
H     3.71000004  31.77999878  55.43000031
H     4.23999977  30.53999901  54.47000122
S    15.85999966  34.13999939  51.09000397
C    18.38999939  34.59999847  50.14999771
C    17.15999985  34.04000092  49.88999939
C    16.76000023  33.59000015  48.59000397
C    17.78000069  33.38999939  47.68000031
C    19.11999893  33.72000122  48.00000000
C    20.22000122  33.44000244  47.14000320
C    21.53000069  33.61999893  47.50999832
C    21.78999901  34.40999985  48.66000366
C    20.78000069  34.81999969  49.50000000
C    19.44000053  34.41999817  49.20999908
C    15.31000042  33.51000214  48.56999969
C    14.68999958  33.88999939  49.78000259
C    13.30000019  34.03000259  49.79999924
C    23.16999817  34.93000031  48.97999573
H    23.63759422  34.39863968  49.80891800
H    18.46999931  35.06000137  51.12999725
H    17.56999969  32.83000183  46.77000046
H    20.06999969  33.13999939  46.11000061
H    22.32000160  33.29999924  46.81999969
H    21.04000092  35.38999939  50.38000107
H    12.92000008  34.33000183  50.77000046
H    23.82999802  34.76000214  48.11000061
H    23.02999878  36.00000000  49.13000107
S    12.02999973  32.86000061  46.20999908
C     9.36999989  32.59999847  47.01000214
C    10.65999985  32.95999908  47.32999802
C    11.00999928  33.47999954  48.61999893
C     9.98000050  33.54000092  49.54000092
C     8.63000011  33.22999954  49.23999786
C     7.50999975  33.48999786  50.08999634
C     6.24000025  33.04999924  49.79000092
C     5.89999962  32.49000168  48.54000092
C     6.96000004  32.36000061  47.67000198
C     8.30999947  32.69000244  47.95000076
C    12.43999958  33.72999954  48.73000336
C    13.09999943  33.29999924  47.55000305
C    14.47999954  33.15999985  47.49000168
C     4.46000004  32.13999939  48.22999954
H     4.03233862  32.67457581  47.38180542
H     9.21000004  32.29000092  45.97999954
H    10.14999962  33.94000244  50.52999878
H     7.69999981  34.00000000  51.03000259
H     5.44000053  33.11999893  50.52000046
H     6.76999998  31.88999939  46.70000076
H    14.82999992  32.76000214  46.53999710
H     3.89999986  32.34999847  49.15000153
H     4.44999981  31.07000160  47.97999954
