96

S    15.67000008  34.34999847  57.05999756
C    18.44000053  34.34000015  56.40999603
C    17.13000107  34.06999969  56.09000397
C    16.77000046  33.43000031  54.86000061
C    17.80999947  33.25999832  53.95999908
C    19.17000008  33.45999908  54.29999924
C    20.19000053  33.40999985  53.30999756
C    21.47999954  33.77000046  53.60000229
C    21.86000061  34.20000076  54.89999771
C    20.89999962  34.22999954  55.89000320
C    19.54000092  33.90999985  55.61999893
C    15.32999992  33.22999954  54.68999863
C    14.60999966  33.59000015  55.86000061
C    13.22000027  33.72000122  55.86999893
C    23.25000000  34.70999908  55.20000076
H    23.71903610  34.14147186  56.00304413
H    18.68000031  34.84000015  57.34000397
H    17.69000053  33.06999969  52.90000153
H    19.84000015  33.15999985  52.30999756
H    22.20999908  33.68000031  52.80000305
H    21.09999847  34.76000214  56.81000137
H    12.72999954  33.81999969  56.83000183
H    23.82999802  34.70999908  54.27000046
H    23.25000000  35.75000000  55.54999924
S    12.13000107  32.36000061  52.28000259
C     9.40999985  32.37999725  52.90000153
C    10.69000053  32.75000000  53.23999786
C    11.05999947  33.27000046  54.52999878
C    10.03999901  33.38999939  55.45999908
C     8.69999981  33.08000183  55.13000107
C     7.64999962  33.06999969  56.10000229
C     6.38000011  32.80999756  55.65000153
C     6.03999996  32.26000214  54.38999939
C     7.03000021  32.25000000  53.43999863
C     8.36000061  32.56000137  53.82999802
C    12.48999977  33.38999939  54.72000122
C    13.20000076  32.85000229  53.61000061
C    14.59000015  32.88999939  53.55999756
C     4.59999990  31.87999916  54.13000107
H     4.05938196  32.52020645  53.43288803
H     9.26000023  32.00999832  51.88999939
H    10.19999981  33.59999847  56.51000214
H     7.88000011  33.29000092  57.14000320
H     5.56999969  33.02999878  56.35000229
H     6.77999973  32.06000137  52.38999939
H    15.11000061  32.54000092  52.68000031
H     4.05999994  31.77999878  55.07999802
H     4.55000019  30.90999985  53.61999893
S    15.93000031  34.61999893  51.18000031
C    18.63000107  34.77999878  50.45999908
C    17.35000038  34.41999817  50.13000107
C    16.94000053  33.90000153  48.86000061
C    17.89999962  33.77999878  47.87000275
C    19.23999977  34.17000198  48.13999939
C    20.23999977  34.20000076  47.12999725
C    21.56999969  34.52000046  47.32999802
C    21.90000153  34.87999725  48.67000198
C    20.97999954  34.97999954  49.68000031
C    19.61000061  34.64999771  49.43999863
C    15.52000046  33.59000015  48.79000092
C    14.80999947  34.04000092  49.93000031
C    13.43999958  34.25000000  50.04000092
C    23.36000061  35.09000015  49.01000214
H    23.70929527  34.49121094  49.85115814
H    18.82999992  35.16999817  51.45000076
H    17.61000061  33.54999924  46.84999847
H    20.07999802  33.80000305  46.13999939
H    22.23999977  34.57999802  46.49000168
H    21.19999886  35.16999817  50.72999954
H    13.09999943  34.48999786  51.04000092
H    23.95000076  34.93999863  48.09999847
H    23.45999908  36.15000153  49.27000046
S    12.30999947  33.08000183  46.38000107
C     9.57999992  33.04000092  47.04999924
C    10.88999939  33.25000000  47.43999863
C    11.23000050  33.67000198  48.75999832
C    10.22999954  34.01000214  49.65000153
C     8.86999989  33.77000046  49.31999969
C     7.76999998  33.81999969  50.21999741
C     6.48000002  33.44000244  49.94999695
C     6.23000050  32.76000214  48.73000336
C     7.26000023  32.69000244  47.81999969
C     8.59000015  33.13999939  48.06000137
C    12.64999962  33.90999985  48.93000031
C    13.34000015  33.51000214  47.76000214
C    14.70999908  33.31999969  47.68000031
C     4.82999992  32.27999878  48.44999695
H     4.46750975  32.78464508  47.55443192
H     9.42000008  32.78000259  46.00999832
H    10.39999962  34.31000137  50.68999863
H     7.99000025  34.15000153  51.23000336
H     5.68000031  33.79000092  50.59999847
H     7.07000017  32.31999969  46.81000137
H    15.21000004  33.18000031  46.72000122
H     4.19000006  32.50999832  49.31999969
H     4.76999998  31.18999863  48.34999847
