96

S    15.27999973  33.61000061  56.90000153
C    18.02000046  33.69999695  56.13999939
C    16.70999908  33.36000061  55.89000320
C    16.36000061  32.90999985  54.58000183
C    17.35000038  32.72999954  53.63999939
C    18.68000031  33.15999985  53.88999939
C    19.70999908  33.06999969  52.90999985
C    21.01000023  33.36000061  53.22999954
C    21.37000084  33.88999939  54.50000000
C    20.36999893  34.17000198  55.40999985
C    19.04999924  33.68999863  55.17000198
C    14.91000080  32.81999969  54.41999817
C    14.18000031  33.23999786  55.56000137
C    12.84000015  33.59000015  55.59999847
C    22.80999947  34.22000122  54.80999756
H    23.18789482  33.64958954  55.65848160
H    18.27000046  34.15000153  57.09999847
H    17.15999985  32.22999954  52.69000244
H    19.47000122  32.70999908  51.90999985
H    21.76000214  33.16999817  52.45999908
H    20.52999878  34.52999878  56.42000198
H    12.35999966  33.95000076  56.51000214
H    23.45999908  34.20999908  53.93000031
H    22.86999893  35.27000046  55.12000275
S    11.61999893  32.09000015  52.12999725
C     8.93000031  32.23999786  52.81000137
C    10.21999931  32.63999939  53.06000137
C    10.65000057  33.23999786  54.29000092
C     9.68000031  33.52000046  55.24000168
C     8.34000015  33.08000183  55.08999634
C     7.36999989  33.34999847  56.09000397
C     6.10000038  32.88000107  55.86000061
C     5.78999996  32.02999878  54.77000427
C     6.71000004  31.80999947  53.75999832
C     8.01999950  32.36000061  53.88999939
C    12.09000015  33.23999786  54.47000122
C    12.76000023  32.65000153  53.36999893
C    14.14000034  32.54000092  53.27999878
C     4.35999966  31.68000031  54.41999817
H     3.82353878  32.29514313  53.69756317
H     8.78000069  31.70000076  51.88000107
H     9.96999931  33.88000107  56.22000122
H     7.63000011  33.91999817  56.97999954
H     5.31000042  33.29000092  56.49000168
H     6.25999975  31.38999939  52.87000275
H    14.61999989  32.26000214  52.35000229
H     3.79999995  31.64999962  55.37000275
H     4.19999981  30.65999985  54.02999878
S    15.72000027  34.47999954  51.19999695
C    18.42000008  34.52999878  50.45999908
C    17.13000107  34.13000107  50.18000031
C    16.77000046  33.38000107  49.02000046
C    17.82999992  32.93000031  48.25000000
C    19.12999916  33.47999954  48.36000061
C    20.22000122  33.29999924  47.45999908
C    21.50000000  33.68000031  47.78999710
C    21.80000114  34.36999893  49.00000000
C    20.76000023  34.69000244  49.82999802
C    19.44000053  34.26000214  49.52000046
C    15.32999992  33.22999954  48.88000107
C    14.63999939  33.75000000  50.00999832
C    13.26000023  33.91999817  50.02999878
C    23.23999786  34.71999741  49.34000015
H    23.69478416  34.13019943  50.13587189
H    18.68999863  35.13000107  51.31999969
H    17.59000015  32.52000046  47.27000427
H    20.12000084  32.83000183  46.47999573
H    22.32000160  33.39999771  47.15000153
H    20.95999908  35.05000305  50.84000015
H    12.94999981  34.18999863  51.03000259
H    23.94000053  34.54999924  48.52000427
H    23.32999992  35.79999924  49.47999954
S    12.06999969  32.31999969  46.58000183
C     9.38000011  32.38999939  47.29999924
C    10.67000008  32.79000092  47.56000137
C    10.98999977  33.45000076  48.80000305
C    10.00000000  33.74000168  49.72000122
C     8.65999985  33.45000076  49.40000153
C     7.59999990  33.59000015  50.34999847
C     6.28999996  33.25999832  50.11000061
C     5.95000029  32.66999817  48.87000275
C     6.97000027  32.38999939  47.98999786
C     8.34000015  32.73999786  48.18999863
C    12.43000031  33.54000092  48.96999741
C    13.10999966  32.95999908  47.87000275
C    14.48999977  32.77000046  47.84999847
C     4.51000023  32.31999969  48.54999924
H     4.05445099  32.78266907  47.67449188
H     9.19000053  31.78999901  46.40999603
H    10.11999989  34.15999985  50.72000122
H     7.73999977  33.90999985  51.38000107
H     5.55000019  33.39999771  50.90000153
H     6.61000013  31.80000114  47.14000320
H    14.93000031  32.29999924  46.97999954
H     4.00999975  32.57999802  49.48999786
H     4.55999994  31.22999954  48.52000427
