96

S    15.14999962  33.95000076  57.39999771
C    17.89999962  33.94000244  56.88999939
C    16.61999893  33.63999939  56.45999908
C    16.31000137  33.09999847  55.18000031
C    17.31999969  32.86000061  54.26000214
C    18.64999962  33.18000031  54.61999893
C    19.73999977  33.00000000  53.72000122
C    21.02999878  33.34999847  54.06999969
C    21.27000046  34.03000259  55.30000305
C    20.23999977  34.18000031  56.19999695
C    18.90999985  33.75999832  55.90999985
C    14.88000011  33.11999893  54.89999771
C    14.11000061  33.59000015  56.00000000
C    12.72999954  33.72000122  55.94999695
C    22.67999840  34.45999908  55.61000061
H    23.22850227  33.79752350  56.27960205
H    18.12000084  34.40999985  57.84000015
H    17.14999962  32.34999847  53.31999969
H    19.52999878  32.40999985  52.84000015
H    21.88999939  33.25999832  53.43000031
H    20.43999863  34.59999847  57.18999863
H    12.20000076  33.75999832  56.88999939
H    23.26000023  34.34000015  54.68000031
H    22.69000053  35.47999954  56.00999832
S    11.79999924  31.87000084  52.60000229
C     9.06000042  31.84999847  53.16999817
C    10.31999969  32.27999878  53.50000000
C    10.64000034  33.04000092  54.66999817
C     9.65999985  33.06999969  55.65000153
C     8.32999992  32.65999985  55.38999939
C     7.27999973  32.68000031  56.35000229
C     5.98000002  32.34000015  56.05999756
C     5.73000002  31.70000076  54.81999969
C     6.76000023  31.42000008  53.94000244
C     8.03999996  31.98999786  54.13999939
C    12.05000019  33.38000107  54.77000427
C    12.81000042  32.79000092  53.73000336
C    14.19000053  32.62000275  53.79000092
C     4.30999994  31.31999969  54.47000122
H     3.90252686  32.03486633  53.75513458
H     8.82000065  31.35000038  52.22999954
H     9.88000011  33.45999908  56.63999939
H     7.59999990  33.04999924  57.31999969
H     5.14999962  32.55000305  56.72000122
H     6.63999987  30.71000099  53.13000107
H    14.73000050  32.13999939  52.98999786
H     3.58000016  31.19999886  55.27999878
H     4.19000006  30.36000061  53.95999908
S    15.78999996  34.25000000  51.36000061
C    18.47999954  34.40000153  50.73999786
C    17.23999977  33.94000244  50.38000107
C    16.84000015  33.39999771  49.10999680
C    17.85000038  33.34000015  48.16999817
C    19.13999939  33.84999847  48.44999695
C    20.20000076  33.63999939  47.51999664
C    21.47000122  34.05999756  47.84999847
C    21.84000015  34.48999786  49.15000153
C    20.86000061  34.63999939  50.10000229
C    19.51000023  34.31000137  49.75999832
C    15.40999985  33.31000137  48.88999939
C    14.72000027  33.68999863  50.06999969
C    13.34000015  33.82999802  50.12000275
C    23.28000069  34.72999954  49.55999756
H    23.70845032  33.97307205  50.21695709
H    18.63999939  34.84999847  51.72000122
H    17.67000008  32.85000229  47.21000290
H    20.09000015  33.20000076  46.52999878
H    22.21999931  34.13999939  47.06999969
H    21.02999878  34.87999725  51.13999939
H    12.81999969  34.02000046  51.05999756
H    23.95999908  35.04000092  48.75000000
H    23.29999924  35.72000122  50.02999878
S    12.18000031  32.52999878  46.56000137
C     9.52999973  32.38999939  47.32999802
C    10.78999996  32.88999939  47.60000229
C    11.07999992  33.59999847  48.81000137
C    10.14000034  33.59999847  49.81999969
C     8.84000015  33.11999893  49.58000183
C     7.79999971  33.06000137  50.54999924
C     6.53999996  32.61000061  50.24000168
C     6.25999975  32.06999969  48.95000076
C     7.21000004  32.06999969  47.95999908
C     8.51000023  32.54000092  48.29999924
C    12.53000069  33.59999847  49.00000000
C    13.22999954  33.11999893  47.87000275
C    14.60999966  33.02000046  47.77000046
C     4.86000013  31.70999908  48.50000000
H     4.39741135  32.32915497  47.73139191
H     9.36999989  31.68000031  46.52000046
H    10.36999893  33.84000015  50.86000061
H     7.96000004  33.40999985  51.56000137
H     5.68000031  32.70000076  50.90000153
H     6.96000004  31.70000076  46.97000122
H    15.06000042  32.59999847  46.88000107
H     4.11000013  31.70000076  49.29000092
H     4.97000027  30.75000000  47.97000122
