96

S    15.19000053  34.13000107  56.86999893
C    17.93000031  34.06999969  56.22000122
C    16.62999916  33.75000000  55.90000153
C    16.36000061  33.20000076  54.61000061
C    17.35999870  33.06999969  53.66000366
C    18.70000076  33.34000015  53.99000168
C    19.82999992  33.32999802  53.11999893
C    21.11999893  33.68999863  53.37999725
C    21.32999802  34.22999954  54.68000031
C    20.30999947  34.29999924  55.61000061
C    18.98999977  33.88000107  55.30000305
C    14.92000008  33.04000092  54.45000076
C    14.17000008  33.44000244  55.59000015
C    12.79000092  33.61000061  55.61000061
C    22.70000076  34.63000107  55.17000198
H    23.18773842  33.95140839  55.86980438
H    18.26000023  34.59000015  57.11999893
H    17.18000031  32.68000031  52.65999603
H    19.57999992  32.92000198  52.12999725
H    21.91999817  33.54999924  52.64999771
H    20.52999878  34.79000092  56.55000305
H    12.23000050  33.87000275  56.50000000
H    23.32999992  34.59999847  54.27999878
H    22.75000000  35.66999817  55.50000000
S    11.64000034  32.47000122  52.04999924
C     8.86999989  32.45999908  52.64999771
C    10.17000008  32.70999908  53.02000046
C    10.59000015  33.06000137  54.34000015
C     9.61000061  33.29000092  55.28999710
C     8.26000023  33.02000046  54.97000122
C     7.21000004  33.02999878  55.93000031
C     5.91000032  32.61000061  55.72000122
C     5.63000011  32.09999847  54.43000031
C     6.56000042  32.09999847  53.40999985
C     7.90000010  32.50999832  53.68000031
C    12.02000046  33.25999832  54.50000000
C    12.76999950  32.88000107  53.34999847
C    14.15999985  32.80999756  53.29000092
C     4.23999977  31.60000038  54.10999680
H     3.74305391  32.20343399  53.35038376
H     8.61999989  32.20000076  51.62000275
H     9.89999962  33.59000015  56.29000092
H     7.50000000  33.31999969  56.93999863
H     5.23999977  32.66999817  56.58000183
H     6.35999966  31.70000076  52.42000198
H    14.73000050  32.56000137  52.41000366
H     3.56999993  31.59000015  54.97000122
H     4.21999979  30.56999969  53.74000168
S    12.10999966  30.35000038  49.26000214
C     9.40999985  29.96000099  50.01999664
C    10.75000000  29.80999947  50.27000046
C    11.18000031  29.11999893  51.45000076
C    10.22999954  28.64000130  52.32999802
C     8.85000038  28.81999969  52.09999847
C     7.90000010  28.13999939  52.91999817
C     6.56000042  28.25000000  52.60000229
C     6.14000034  29.03000069  51.49000168
C     7.02000046  29.61000061  50.61000061
C     8.40999985  29.46000099  50.89000320
C    12.61999989  29.17000008  51.63999939
C    13.21000004  29.90999985  50.58000183
C    14.52000046  30.36999893  50.54999924
C     4.67999983  29.26000214  51.16000366
H     4.26537943  28.66666412  50.34505463
H     9.06000042  30.29999924  49.05000305
H    10.62000084  28.12999916  53.22000122
H     8.21000004  27.65999985  53.83999634
H     5.80999947  27.95000076  53.31999969
H     6.78999996  30.22999954  49.75000000
H    15.01999950  30.84000015  49.71000290
H     4.07000017  29.11999893  52.05999756
H     4.67000008  30.31999969  50.86999893
S    15.98000050  28.77000046  53.90999603
C    18.59000015  29.28999901  53.15999985
C    17.26000023  29.54999924  52.95000076
C    16.75000000  30.17999840  51.77000046
C    17.69000053  30.59000015  50.84000015
C    19.06999969  30.43000031  51.07999802
C    20.00000000  31.00000000  50.17000198
C    21.35000038  31.04999924  50.45000076
C    21.87999916  30.53999901  51.66999817
C    20.95000076  30.07999802  52.56999969
C    19.55999947  29.87999916  52.30999756
C    15.29999924  30.06999969  51.66999817
C    14.75999928  29.30000114  52.74000168
C    13.45000076  28.82999802  52.70999908
C    23.32999992  30.81000137  51.98999786
H    23.67766190  30.18562889  52.81303406
H    18.78000069  28.75000000  54.08000183
H    17.46000099  31.07000160  49.88999939
H    19.57999992  31.34000015  49.22999954
H    21.97999954  31.56999969  49.73999786
H    21.21000099  29.80999947  53.59000397
H    12.97000027  28.22999954  53.47999954
H    23.47999954  31.87000084  52.19999695
H    23.92000008  30.52999878  51.10000229
