96

S    15.47000027  34.06999969  56.86999893
C    18.13999939  34.04999924  56.03000259
C    16.84000015  33.67000198  55.79999924
C    16.50000000  32.97999954  54.59000015
C    17.40999985  32.77000046  53.56999969
C    18.73999977  33.22999954  53.73000336
C    19.76000023  32.97999954  52.77000046
C    21.09000015  33.18000031  53.06999969
C    21.42999840  33.81999969  54.27999878
C    20.43000031  34.27000046  55.11000061
C    19.07999992  33.82999802  54.99000168
C    15.06000042  32.83000183  54.55999756
C    14.35999966  33.39999771  55.65999985
C    12.98999977  33.54000092  55.77000046
C    22.88000107  34.09000015  54.64000320
H    23.28731728  33.39684677  55.37602615
H    18.45999908  34.56999969  56.93000031
H    17.13999939  32.26000214  52.64999771
H    19.42000008  32.55000305  51.83000183
H    21.80999947  32.90999985  52.29999924
H    20.69999886  34.75000000  56.04999924
H    12.51000023  34.01000214  56.62000275
H    23.47999954  34.20999908  53.73000336
H    22.89999962  35.13999939  54.95999908
S    11.68000031  32.15999985  52.32999802
C     8.97999954  32.18000031  53.09999847
C    10.26999950  32.59000015  53.31999969
C    10.70000076  33.09999847  54.59000015
C     9.72000027  33.34000015  55.52999878
C     8.34000015  33.11000061  55.27999878
C     7.37999964  33.22000122  56.31999969
C     6.06999969  32.83000183  56.18000031
C     5.69999981  32.33000183  54.91000366
C     6.58999968  32.15999985  53.87000275
C     7.96999979  32.47999954  54.03999710
C    12.15000057  33.09000015  54.73999786
C    12.82999992  32.62000275  53.60000229
C    14.19999981  32.38999939  53.54000092
C     4.28999996  31.78999901  54.77000427
H     3.81248760  32.18198776  53.87199020
H     8.64000034  31.68000031  52.18999863
H    10.00000000  33.54999924  56.56000137
H     7.82999992  33.65999985  57.21000290
H     5.36000013  32.70999908  57.00000000
H     6.30999994  31.70999908  52.93000031
H    14.65000057  31.97999954  52.63999939
H     3.81999993  32.00999832  55.72999954
H     4.32000017  30.69999886  54.61000061
S    12.38000011  30.34000015  49.40000153
C     9.73999977  29.76000023  50.12000275
C    11.09000015  29.54999924  50.31999969
C    11.56999969  28.72999954  51.38999939
C    10.70000076  28.08000183  52.23999786
C     9.31999969  28.36000061  52.14000320
C     8.48999977  27.95000076  53.22000122
C     7.14999962  28.21000099  53.08000183
C     6.60000038  28.90000153  51.97000122
C     7.46000004  29.48999786  51.06999969
C     8.85000038  29.20999908  51.06999969
C    12.97000027  29.04999924  51.62000275
C    13.59000015  29.76000023  50.56000137
C    14.92000008  30.17000008  50.59000015
C     5.10999966  29.14999962  51.86999893
H     4.64677954  28.57988358  51.06470871
H     9.30000019  30.31999969  49.29000092
H    10.98000050  27.43000031  53.06999969
H     8.90999985  27.34000015  54.02000046
H     6.48999977  27.63999939  53.73000336
H     7.20000029  30.19000053  50.27999878
H    15.40999985  30.58000183  49.71000290
H     4.56999969  29.00000000  52.81999969
H     5.00999975  30.22000122  51.63999939
S    16.18999863  28.51000023  53.99000168
C    18.92000008  29.06999969  53.27999878
C    17.56999969  29.06999969  53.01000214
C    17.10000038  29.79000092  51.86999893
C    17.97999954  30.36000061  50.96000290
C    19.34000015  30.03000069  51.11999893
C    20.23999977  30.65999985  50.20999908
C    21.57999992  30.63999939  50.52000046
C    22.11999893  30.12000084  51.72000122
C    21.27000046  29.65999985  52.70000076
C    19.88999939  29.57999992  52.37999725
C    15.65000057  29.73999977  51.70000076
C    15.01999950  29.11000061  52.80000305
C    13.66000080  28.81999969  52.81999969
C    23.52999878  30.53999901  52.06999969
H    23.96446228  29.99869919  52.91043854
H    19.29000092  28.59000015  54.18000031
H    17.65999985  30.96999931  50.12000275
H    19.84000015  31.37000084  49.48999786
H    22.22999954  31.15999985  49.81999969
H    21.45999908  29.43000031  53.75000000
H    13.15000057  28.46999931  53.70999908
H    23.44000053  31.61999893  52.27000427
H    24.20000076  30.48999977  51.20999908
