96

S    15.29000092  34.20000076  57.15999985
C    18.04000092  34.09000015  56.58000183
C    16.75000000  33.77999878  56.25000000
C    16.40999985  33.08000183  55.04000092
C    17.42000008  32.72000122  54.16999817
C    18.77000046  32.95000076  54.52999878
C    19.77000046  32.79000092  53.53000259
C    21.07999992  33.18999863  53.68000031
C    21.38999939  33.81000137  54.91000366
C    20.43999863  34.11999893  55.86000061
C    19.09000015  33.68000031  55.72999954
C    14.96999931  33.06000137  54.78000259
C    14.22999954  33.61000061  55.86000061
C    12.84000015  33.68999863  55.90000153
C    22.77000046  34.27000046  55.31999969
H    23.11877251  33.67922592  56.16701889
H    18.20999908  34.54999924  57.56000137
H    17.20999908  32.29000092  53.18999863
H    19.45000076  32.33000183  52.60000229
H    21.87000084  33.06000137  52.94000244
H    20.72999954  34.59000015  56.79999924
H    12.23999977  34.04999924  56.72999954
H    23.48999977  34.20999908  54.48999786
H    22.72999954  35.36000061  55.45999908
S    11.84000015  32.38999939  52.28000259
C     9.11999989  32.36999893  52.84000015
C    10.39000034  32.70000076  53.26000214
C    10.71000004  33.27999878  54.52000046
C     9.67000008  33.56999969  55.38000107
C     8.31999969  33.38000107  54.98000336
C     7.23999977  33.65999985  55.86000061
C     5.92999983  33.43000031  55.52000046
C     5.69000006  32.77000046  54.27999878
C     6.71999979  32.40000153  53.43999863
C     8.06999969  32.73999786  53.72000122
C    12.15000057  33.29999924  54.75000000
C    12.89000034  32.81999969  53.63999939
C    14.26000023  32.56000137  53.68999863
C     4.30999994  32.31999969  53.88000107
H     3.88447189  32.95119858  53.09986496
H     8.97999954  31.96000099  51.84000015
H     9.94000053  33.86000061  56.39999771
H     7.53000021  34.00000000  56.84999847
H     5.07999992  33.52999878  56.18999863
H     6.57999992  32.02999878  52.43000031
H    14.75000000  32.02999878  52.88000107
H     3.63999987  32.26000214  54.75000000
H     4.40000010  31.32999802  53.41999817
S    12.56000042  30.50000000  49.51000214
C     9.92999935  29.90999985  50.11000061
C    11.25000000  29.71999931  50.41999817
C    11.69000053  28.95000076  51.53999710
C    10.76000023  28.45000076  52.43999863
C     9.40999985  28.81000137  52.25000000
C     8.40999985  28.35000038  53.15999985
C     7.07000017  28.47999954  52.87000275
C     6.61999989  29.09000015  51.66999817
C     7.57000017  29.67000008  50.86999893
C     8.97000027  29.53000069  51.07999802
C    13.12000084  29.14999962  51.75000000
C    13.71999931  29.92000198  50.72999954
C    15.06000042  30.28000069  50.68000031
C     5.17000008  29.44999886  51.39999771
H     4.62712193  28.80711746  50.70711517
H     9.63000011  30.39999962  49.18000031
H    11.17000008  27.98000145  53.34000015
H     8.69000053  27.67000008  53.95999908
H     6.32999992  28.15000153  53.60000229
H     7.23000002  30.30999947  50.06000137
H    15.44000053  30.86000061  49.85000229
H     4.69000006  29.41999817  52.37999725
H     5.13999987  30.50000000  51.09000397
S    16.54999924  28.64000130  53.95999908
C    19.19000053  29.27999878  53.36000061
C    17.86000061  29.44999886  53.08000183
C    17.32999992  30.05000114  51.88000107
C    18.27000046  30.39999962  50.93000031
C    19.64999962  30.29000092  51.18000031
C    20.61000061  30.73999786  50.22999573
C    21.94999886  30.45000076  50.40999985
C    22.37999916  29.97999954  51.66999817
C    21.53000069  29.61999893  52.70000076
C    20.13999939  29.70999908  52.41000366
C    15.90000057  29.87999916  51.72999954
C    15.31999969  29.11999893  52.77000046
C    14.00000000  28.68000031  52.72999573
C    23.88000107  29.96000099  51.90000153
H    24.16375732  30.10187912  52.94281006
H    19.59000015  28.85999870  54.29000092
H    17.95999908  30.69999886  49.93000031
H    20.30999947  31.18999863  49.29000092
H    22.70999908  30.76999855  49.69999695
H    21.98999786  29.37999916  53.64999771
H    13.63000011  27.93999863  53.43999863
H    24.20999908  30.63999939  51.11000061
H    24.15999985  28.97999954  51.50000000
