96

S    15.57999992  33.87000275  57.01000214
C    18.30999947  33.95000076  56.35000229
C    17.01000023  33.63999939  55.98999786
C    16.67000008  33.15000153  54.68999863
C    17.69000053  32.86000061  53.80000305
C    19.01000023  33.25000000  54.10999680
C    20.06000137  33.13000107  53.15999985
C    21.28999901  33.68999863  53.43000031
C    21.57999992  34.29999924  54.66999817
C    20.59999847  34.43999863  55.63999939
C    19.34000015  33.82999802  55.38999939
C    15.21999931  33.06000137  54.58000183
C    14.46000004  33.56999969  55.66999817
C    13.09000015  33.80000305  55.61999893
C    22.98999977  34.75000000  54.98000336
H    23.49563408  34.00935364  55.59957886
H    18.44000053  34.54000092  57.25000000
H    17.35999870  32.40000153  52.88000107
H    19.79999924  32.65999985  52.21000290
H    22.04000092  33.48999786  52.67000198
H    20.86999893  34.84999847  56.60999680
H    12.56999969  34.27999878  56.45000076
H    23.54000092  35.04000092  54.08000183
H    22.76000023  35.75000000  55.38999939
S    11.92000008  32.00000000  52.29999924
C     9.22000027  32.04000092  53.11000061
C    10.52999973  32.42000198  53.31999969
C    10.93000031  33.20000076  54.45000076
C     9.89999962  33.54000092  55.30000305
C     8.56000042  33.11999893  55.14999771
C     7.55000019  33.34999847  56.12999725
C     6.25999975  32.92000198  55.91999817
C     5.86000013  32.25000000  54.72999954
C     6.78999996  32.06000137  53.73000336
C     8.15999985  32.36999893  53.99000168
C    12.38000011  33.36999893  54.48999786
C    13.07000065  32.77000046  53.41999817
C    14.45000076  32.61000061  53.50000000
C     4.42000008  31.90999985  54.47000122
H     3.97848010  32.42273331  53.61544800
H     8.92000008  31.63000107  52.15000153
H    10.21000004  34.00000000  56.24000168
H     7.79999971  33.97999954  56.97999954
H     5.46999979  33.01000214  56.65000153
H     6.51000023  31.65999985  52.76000214
H    14.96999931  32.02999878  52.75000000
H     3.88999987  32.25000000  55.35999680
H     4.48000002  30.81999969  54.36000061
S    12.42000008  30.29000092  49.26000214
C     9.75000000  29.75000000  49.97000122
C    11.10000038  29.63999939  50.25000000
C    11.54999924  28.94000053  51.40999603
C    10.57999992  28.51000023  52.29999924
C     9.19000053  28.67000198  52.09000015
C     8.19999981  28.25000000  53.02000046
C     6.85999966  28.32999992  52.70999908
C     6.44999981  29.05999947  51.56000137
C     7.36000013  29.51000023  50.63999939
C     8.75000000  29.30000114  50.86999893
C    12.98999977  29.10000038  51.58000183
C    13.56999969  29.86999893  50.54999924
C    14.92000008  30.19000053  50.51000214
C     5.00000000  29.47000122  51.45999908
H     4.53728437  29.02864075  50.57727814
H     9.42000008  30.19000053  49.02999878
H    10.97000027  27.98000145  53.15000153
H     8.53999996  27.92000008  54.00000000
H     6.11000013  27.93000031  53.37999725
H     6.86999989  30.00000000  49.80999756
H    15.36999893  30.62999916  49.62999725
H     4.44000006  29.09000015  52.34000397
H     4.92000008  30.55999947  51.38999939
S    16.25000000  28.65999985  53.92000198
C    18.89999962  29.09000015  53.29000092
C    17.59000015  29.33000183  52.95999908
C    17.13000107  29.97999954  51.77000046
C    18.12999916  30.38000107  50.90000153
C    19.51000023  30.17000008  51.13999939
C    20.51000214  30.56999969  50.21999741
C    21.83000183  30.30999947  50.50000000
C    22.18000031  29.69000053  51.72999954
C    21.25999832  29.27999878  52.67000198
C    19.88999939  29.44999886  52.34000397
C    15.69000053  29.86000061  51.63999939
C    15.06000042  29.17000008  52.70999908
C    13.76000023  28.68000031  52.68000031
C    23.61999893  29.57999992  52.15999985
H    23.79839134  30.36491966  52.89496994
H    19.15999985  28.61000061  54.22000122
H    17.81999969  30.79000092  49.94999695
H    20.28000069  31.00000000  49.23999786
H    22.60000038  30.58000183  49.78000259
H    21.56999969  28.75000000  53.56999969
H    13.38999939  28.15000153  53.54999924
H    24.26000214  29.64999962  51.26999664
H    23.87000084  28.61000061  52.61000061
