96

S    15.29000092  33.65999985  57.38999939
C    17.98999977  33.91999817  56.62000275
C    16.72000122  33.45999908  56.37000275
C    16.34000015  32.93000031  55.10000229
C    17.29999924  32.72999954  54.12000275
C    18.63000107  33.13000107  54.38000107
C    19.54000092  33.23999786  53.29000092
C    20.86000061  33.51000214  53.57999802
C    21.21999931  34.03000259  54.85000229
C    20.32999992  34.15000153  55.89000320
C    19.01000023  33.65999985  55.66999817
C    14.89999962  32.79000092  54.98000336
C    14.14999962  33.27999878  56.07999802
C    12.77999973  33.51000214  56.03000259
C    22.67000008  34.38999939  55.11000061
H    23.15205193  33.63147736  55.72674179
H    18.11000061  34.47000122  57.55000305
H    17.00000000  32.47999954  53.09999847
H    19.34000015  32.72000122  52.36000061
H    21.70000076  33.20000076  52.95999908
H    20.55000114  34.50999832  56.88999939
H    12.35999966  33.95000076  56.93000031
H    23.09000015  34.54000092  54.10999680
H    22.62000084  35.38999939  55.54999924
S    11.77999973  32.19000244  52.44999695
C     9.04999924  32.27999878  52.97999954
C    10.34000015  32.49000168  53.43000031
C    10.62000084  32.88000107  54.77000427
C     9.55999947  32.97000122  55.65999985
C     8.23000050  32.66999817  55.27999878
C     7.14999962  32.65000153  56.20999908
C     5.86000013  32.38999939  55.80999756
C     5.64000034  31.97999954  54.47000122
C     6.63999987  32.04999924  53.52000427
C     7.96999979  32.36000061  53.89999771
C    12.05999947  33.02999878  54.93999863
C    12.82999992  32.59999847  53.81999969
C    14.21000004  32.52000046  53.79000092
C     4.26999998  31.42999840  54.13000107
H     3.81841040  31.82424355  53.21965027
H     8.86999989  32.00999832  51.95000076
H     9.77000046  33.16999817  56.70999908
H     7.27999973  32.97000122  57.25000000
H     5.05000019  32.54000092  56.51000214
H     6.38000011  31.87000084  52.48000336
H    14.77000046  32.33000183  52.87000275
H     3.58000016  31.71999931  54.93000031
H     4.25000000  30.32999992  54.05000305
S    15.85000038  34.03000259  51.18000031
C    18.51000023  34.52999878  50.35999680
C    17.25000000  34.04999924  50.10000229
C    16.84999847  33.56999969  48.81000137
C    17.82999992  33.45000076  47.84000015
C    19.18000031  33.68000031  48.20000076
C    20.25000000  33.59000015  47.25000000
C    21.47999954  34.13999939  47.51999664
C    21.86000061  34.66999817  48.77999878
C    20.88000107  34.75000000  49.75000000
C    19.55999947  34.33000183  49.43000031
C    15.40999985  33.45000076  48.66000366
C    14.70000076  33.72999954  49.86000061
C    13.30999947  33.82999802  49.87999725
C    23.26999855  35.13000107  49.06999969
H    23.71778297  34.49031067  49.83051682
H    18.78000069  34.93999863  51.33999634
H    17.54999924  33.06000137  46.86999893
H    20.00999832  33.18000031  46.26999664
H    22.29999924  34.08000183  46.81000137
H    21.01000023  35.06000137  50.77999878
H    12.65999985  34.02000046  50.72999954
H    23.90999985  35.20000076  48.18000031
H    23.29000092  36.15999985  49.45999908
S    12.31999969  32.62000275  46.24000168
C     9.59999943  32.47000122  46.90000153
C    10.88999939  32.78000259  47.27000427
C    11.17000008  33.38000107  48.54000092
C    10.17000008  33.46999741  49.48999786
C     8.84000015  33.11999893  49.12000275
C     7.73000002  33.27999878  49.99000168
C     6.44000006  32.95000076  49.66999817
C     6.17000008  32.43000031  48.36999893
C     7.20000029  32.22999954  47.48000336
C     8.52000046  32.62000275  47.81000137
C    12.60000038  33.59999847  48.68999863
C    13.35000038  33.27999878  47.52999878
C    14.72000027  33.09999847  47.49000168
C     4.74000025  32.11999893  48.01000214
H     4.36333466  32.51087570  47.06478500
H     9.44999981  31.96000099  45.96000290
H    10.46000004  33.81000137  50.47999954
H     7.88999987  33.65999985  51.00000000
H     5.64000034  33.18999863  50.37000275
H     7.03000021  31.91999817  46.44000244
H    15.17000008  32.88000107  46.52999878
H     4.09999990  32.50999832  48.81999969
H     4.55999994  31.04000092  48.06000137
