96

S    15.75000000  33.74000168  57.09999847
C    18.43000031  33.84000015  56.33999634
C    17.13999939  33.48999786  56.02000427
C    16.81999969  33.02000046  54.69999695
C    17.79000092  33.02000046  53.70999908
C    19.11999893  33.40999985  54.00000000
C    20.22999954  33.18999863  53.13000107
C    21.48999977  33.56999969  53.52000427
C    21.80000114  34.09000015  54.80999756
C    20.75000000  34.20000076  55.68000031
C    19.40999985  33.90000153  55.31999969
C    15.39000034  32.73999786  54.65999985
C    14.68000031  33.23999786  55.77999878
C    13.30000019  33.29999924  55.79999924
C    23.22000122  34.27999878  55.28999710
H    23.50426292  33.58355331  56.07883072
H    18.70000076  34.03000259  57.37999725
H    17.48999977  32.59999847  52.76000214
H    19.93999863  32.72999954  52.18999863
H    22.29999924  33.43000031  52.81000137
H    21.00000000  34.43999863  56.72000122
H    12.84999943  33.54999924  56.75000000
H    23.97999954  34.20000076  54.50000000
H    23.16999817  35.29999924  55.68999863
S    12.11999989  32.22999954  52.22000122
C     9.44000053  32.14999771  52.88999939
C    10.71000004  32.50999832  53.26000214
C    11.03000069  33.01000214  54.55999756
C    10.03999901  33.31000137  55.48999786
C     8.71999931  33.02999878  55.07999802
C     7.64999962  33.22999954  55.98999786
C     6.39999962  32.70999908  55.72999954
C     6.15999985  31.86000061  54.61000061
C     7.13999987  31.71999931  53.66000366
C     8.40999985  32.34999847  53.85000229
C    12.48000050  32.99000168  54.69999695
C    13.21000004  32.54000092  53.57999802
C    14.60000038  32.40000153  53.55999756
C     4.75000000  31.42999840  54.29000092
H     4.29398489  32.17815018  53.64160156
H     9.26000023  31.60000038  51.97000122
H    10.21000004  33.52999878  56.53999710
H     7.88999987  33.75000000  56.90999985
H     5.59000015  32.92000198  56.40999603
H     6.94999981  31.28999901  52.68000031
H    14.93000031  32.07999802  52.56999969
H     4.21999979  31.25999832  55.24000168
H     4.80999994  30.46999931  53.75999832
S    12.15999985  30.34000015  49.20999908
C     9.55999947  29.76000023  49.89999771
C    10.88000107  29.73999977  50.28999710
C    11.30000019  29.01000023  51.45000076
C    10.31000042  28.48999977  52.27000427
C     8.93999958  28.62999916  51.97000122
C     7.90999985  28.08000183  52.78999710
C     6.57999992  28.19000053  52.49000168
C     6.21000004  28.87000084  51.30000305
C     7.16000032  29.28999901  50.38999939
C     8.53999996  29.18000031  50.70000076
C    12.75000000  29.06999969  51.55000305
C    13.30000019  29.75000000  50.43000031
C    14.65999985  30.05000114  50.44000244
C     4.74000025  29.17000008  51.10000229
H     4.25712156  28.57350349  50.32597351
H     9.28999996  30.10000038  48.89999771
H    10.62000084  27.93000031  53.15000153
H     8.19000053  27.50999832  53.68000031
H     5.82999992  27.82999992  53.18999863
H     7.00999975  29.86999893  49.48999786
H    15.06999969  30.65000153  49.64000320
H     4.21000004  28.94000053  52.02999878
H     4.63000011  30.20999908  50.77000046
S    16.15999985  28.68000031  53.85000229
C    18.75000000  29.27999878  53.13000107
C    17.40999985  29.44000053  52.84999847
C    16.95999908  30.02000046  51.63000107
C    17.86999893  30.58000183  50.75000000
C    19.25000000  30.50000000  51.03000259
C    20.22000122  31.11000061  50.18000031
C    21.54999924  31.09000015  50.56000137
C    21.97999954  30.50000000  51.77000046
C    21.07999992  29.84000015  52.56999969
C    19.69000053  29.86999893  52.25000000
C    15.53999996  29.75000000  51.49000168
C    14.98000050  29.00000000  52.56000137
C    13.61999989  28.71999931  52.58999634
C    23.44000053  30.59000015  52.15999985
H    23.69546318  30.28486443  53.17475510
H    19.10000038  28.64999962  53.95000076
H    17.56000137  30.94000053  49.77000427
H    19.96999931  31.47000122  49.19000244
H    22.32000160  31.52000046  49.93000031
H    21.45000076  29.41999817  53.50000000
H    13.25000000  28.26999855  53.50000000
H    23.72999954  31.61999893  51.95000076
H    23.92000008  29.93999863  51.42000198
