96

S    15.34999943  33.61999893  57.11000061
C    18.04000092  33.77999878  56.35000229
C    16.73999977  33.47999954  56.00999832
C    16.36000061  33.00000000  54.72000122
C    17.32999992  32.81999969  53.75999832
C    18.68999863  33.06999969  54.08000183
C    19.80999947  32.85000229  53.23999786
C    21.12999916  33.15999985  53.50000000
C    21.42000008  33.67000198  54.79000092
C    20.38999939  33.90999985  55.68000031
C    19.05999947  33.52000046  55.40000153
C    14.91000080  32.83000183  54.61999893
C    14.22999954  33.13000107  55.83000183
C    12.84000015  33.22000122  55.87999725
C    22.85000038  34.04999924  55.12000275
H    23.22076607  33.54376221  56.01126862
H    18.27000046  34.38999939  57.22000122
H    17.17000008  32.50000000  52.72999573
H    19.51000023  32.50000000  52.25000000
H    21.91999817  33.13000107  52.76000214
H    20.46999931  34.45000076  56.62000275
H    12.46999931  33.39999771  56.88000107
H    23.50000000  33.82999802  54.27000046
H    22.81999969  35.15000153  55.11000061
S    11.77999973  32.21999741  52.15999985
C     9.02000046  32.02000046  52.81999969
C    10.29999924  32.42000198  53.11999893
C    10.67000008  32.83000183  54.43999863
C     9.63999939  32.95999908  55.34999847
C     8.27000046  32.72999954  55.06000137
C     7.20000029  32.70000076  56.00000000
C     5.92000008  32.31999969  55.68999863
C     5.53999996  32.06000137  54.34999847
C     6.58999968  32.00000000  53.46000290
C     7.96000004  32.22999954  53.74000168
C    12.09000015  32.97999954  54.72000122
C    12.79999924  32.56999969  53.56999969
C    14.19000053  32.43999863  53.50000000
C     4.13999987  31.68000031  53.94000244
H     3.63518453  32.43366623  53.33564377
H     8.76999950  31.54999924  51.86999893
H     9.88000011  33.29999924  56.36000061
H     7.40999985  33.01000214  57.02000046
H     5.18000031  32.40999985  56.49000168
H     6.44000006  31.73000145  52.42000198
H    14.78000069  32.13999939  52.63999939
H     3.54999995  31.50000000  54.85000229
H     4.25000000  30.75000000  53.37999725
S    15.62999916  34.29999924  51.09000397
C    18.32999992  34.29999924  50.61999893
C    17.09000015  33.95000076  50.13999939
C    16.77999878  33.61999893  48.77999878
C    17.86000061  33.46999741  47.93000031
C    19.18000031  33.69999695  48.36999893
C    20.29000092  33.45999908  47.50000000
C    21.54999924  33.79000092  47.93000031
C    21.75000000  34.47000122  49.15999985
C    20.71000099  34.61000061  50.06000137
C    19.37999916  34.29999924  49.65999985
C    15.34999943  33.54000092  48.52000427
C    14.61999989  33.93000031  49.68000031
C    13.23999977  34.06999969  49.80999756
C    23.16999817  34.79000092  49.54000092
H    23.68772507  34.03823471  50.13573837
H    18.46999931  34.64999771  51.63999939
H    17.78000069  32.99000168  46.95999908
H    20.05000114  33.08000183  46.51000214
H    22.40999985  33.48999786  47.34000397
H    20.86000061  34.95999908  51.07999802
H    12.69999981  34.41999817  50.68000031
H    23.71000099  35.06000137  48.62999725
H    23.06999969  35.65999985  50.20000076
S    12.20000076  32.70999908  46.22000122
C     9.48000050  32.63000107  46.84000015
C    10.73999977  33.09999847  47.14000320
C    11.06999969  33.67000198  48.41999817
C    10.03999901  33.81999969  49.31999969
C     8.69999981  33.50000000  48.97999573
C     7.65999985  33.52999878  49.94999695
C     6.37000036  33.15000153  49.68000031
C     6.15000010  32.55000305  48.40999985
C     7.09000015  32.40999985  47.42000198
C     8.40999985  32.81999969  47.74000168
C    12.51000023  33.74000168  48.67000198
C    13.23999977  33.34999847  47.50999832
C    14.60999966  33.20999908  47.37999725
C     4.75000000  32.04000092  48.15999985
H     4.15831375  32.80277634  47.65385818
H     9.30999947  32.11999893  45.89000320
H    10.29000092  33.95999908  50.37000275
H     7.90000010  33.84000015  50.97000122
H     5.59000015  33.06999969  50.44000244
H     6.91999960  31.88999939  46.47999573
H    14.92000008  32.86999893  46.38999939
H     4.26000023  31.80000114  49.12000275
H     4.84000015  31.11000061  47.57999802
