96

S    15.18000031  33.68000031  57.12999725
C    17.88999939  33.87000275  56.49000168
C    16.61000061  33.54999924  56.09000397
C    16.28999901  32.97000122  54.81999969
C    17.28999901  32.88999939  53.87000275
C    18.61999893  33.23999786  54.20999908
C    19.69000053  33.22999954  53.27000046
C    20.95000076  33.68999863  53.57999802
C    21.22999954  34.10000229  54.91000366
C    20.22999954  34.17000198  55.84999847
C    18.93000031  33.65999985  55.54999924
C    14.85000038  32.88000107  54.59000015
C    14.14999962  33.15999985  55.79000092
C    12.76999950  33.20000076  55.87999725
C    22.52000046  34.79999924  55.27999878
H    23.06245995  34.17189026  55.98662186
H    17.97000122  34.25000000  57.50000000
H    17.10000038  32.56999969  52.84999847
H    19.55000114  32.93000031  52.22999954
H    21.71999931  33.87000275  52.84000015
H    20.32999992  34.63999939  56.81999969
H    12.35999966  33.31999969  56.88000107
H    23.18000031  35.06999969  54.45000076
H    22.43000031  35.77000046  55.79000092
S    11.68000031  32.14999771  52.18999863
C     8.96000004  32.09999847  52.85999680
C    10.26000023  32.37999725  53.22999954
C    10.60999966  32.83000183  54.54000092
C     9.57999992  32.93000031  55.45999908
C     8.26000023  32.56000137  55.13000107
C     7.21000004  32.70000076  56.07999802
C     5.91000032  32.34999847  55.77000046
C     5.59999990  31.98999786  54.43999863
C     6.54999971  31.84999847  53.44999695
C     7.90000010  32.13999939  53.80000305
C    12.05000019  33.04999924  54.68999863
C    12.74000072  32.57999802  53.54000092
C    14.13000011  32.56999969  53.43000031
C     4.11000013  31.88999939  54.20999908
H     3.59767127  32.60156631  53.56247330
H     8.82999992  31.84000015  51.81000137
H     9.85999966  33.20999908  56.46999741
H     7.46999979  33.11000061  57.04999924
H     5.21000004  32.43000031  56.59999847
H     6.44999981  31.64999962  52.38999939
H    14.63000107  32.31999969  52.50000000
H     3.58999991  31.84999847  55.17000198
H     3.96000004  30.88000107  53.80000305
S    15.80999947  34.38999939  51.24000168
C    18.45000076  34.65999985  50.44000244
C    17.20000076  34.17000198  50.15999603
C    16.80999947  33.55999756  48.93000031
C    17.82999992  33.41999817  48.00000000
C    19.15999985  33.82999802  48.27999878
C    20.17999840  33.59000015  47.30999756
C    21.47000122  33.97999954  47.55000305
C    21.83000183  34.59999847  48.77999878
C    20.88999939  34.75000000  49.77000427
C    19.52000046  34.47000122  49.52000046
C    15.36000061  33.52000046  48.85000229
C    14.63999939  33.88000107  50.00999832
C    13.25000000  33.91999817  50.08999634
C    23.22999954  35.13999939  48.96999741
H    23.71337128  34.53578568  49.73770905
H    18.57999992  35.19000244  51.37000275
H    17.51000023  32.95999908  47.06999969
H    19.98999977  33.09000015  46.37000275
H    22.18000031  33.93000031  46.72999954
H    21.14000130  35.22000122  50.72000122
H    12.61999989  34.02000046  50.97000122
H    23.77000046  35.06000137  48.02000046
H    23.29999924  36.19999695  49.26000214
S    12.23999977  32.54000092  46.50000000
C     9.51000023  32.61000061  47.15999985
C    10.81999969  32.84000015  47.51999664
C    11.11999989  33.50000000  48.75000000
C    10.06999969  33.67000198  49.64000320
C     8.71000004  33.50000000  49.31000137
C     7.60999966  33.61999893  50.20999908
C     6.32999992  33.36999893  49.78000259
C     6.06999969  32.85000229  48.47999954
C     7.11999989  32.59999847  47.63000107
C     8.43000031  33.02999878  47.97999954
C    12.56000042  33.59000015  48.90999603
C    13.30999947  33.08000183  47.81000137
C    14.68999958  33.02999878  47.71999741
C     4.69000006  32.29000092  48.20999908
H     4.16216660  32.83209991  47.42538452
H     9.27999973  32.04999924  46.25999832
H    10.27999973  34.01000214  50.65999985
H     7.73999977  33.97999954  51.23000336
H     5.46999979  33.45000076  50.44000244
H     6.98000002  31.96000099  46.76000214
H    15.17000008  32.56999969  46.86000061
H     4.15999985  32.37999725  49.15999985
H     4.75000000  31.19999886  48.06000137
