96

S    15.17000008  33.41999817  57.21000290
C    17.79999924  33.77999878  56.63999939
C    16.54000092  33.67000198  56.11000061
C    16.22999954  33.36000061  54.73999786
C    17.29999924  33.15999985  53.88999939
C    18.63000107  33.38000107  54.34000015
C    19.70999908  33.36000061  53.41999817
C    21.00000000  33.51000214  53.88999939
C    21.27000046  33.87000275  55.22999573
C    20.22000122  33.91999817  56.12999725
C    18.88000107  33.63999939  55.73999786
C    14.80000019  33.18000031  54.61000061
C    14.07999992  33.27000046  55.81999969
C    12.69000053  33.34000015  55.93999863
C    22.62000084  34.41999817  55.61999893
H    23.07423401  33.90188980  56.46459198
H    17.98999977  33.88999939  57.70999908
H    17.12000084  33.04999924  52.81999969
H    19.61000061  33.16999817  52.36000061
H    21.80000114  33.68999863  53.18000031
H    20.38999939  34.33000183  57.11000061
H    12.22000027  33.52000046  56.90000153
H    23.26000023  34.38000107  54.72999954
H    22.53999901  35.50000000  55.77999878
S    11.49000072  32.77000046  52.18999863
C     8.84000015  32.40999985  53.02000046
C    10.11999989  32.81999969  53.31999969
C    10.51000023  33.18999863  54.64000320
C     9.53999996  33.43000031  55.59000015
C     8.22000027  33.01000214  55.34999847
C     7.18999958  33.18999863  56.31999969
C     5.88000011  32.90999985  56.02000427
C     5.60999966  32.21999741  54.80999756
C     6.56000042  31.97999954  53.83999634
C     7.88999987  32.40000153  54.08000183
C    11.97000027  33.22999954  54.75000000
C    12.64000034  33.06000137  53.50999832
C    14.02999973  33.00000000  53.44999695
C     4.21000004  31.84999847  54.38000107
H     3.62661505  32.51164627  53.73970032
H     8.56999969  32.00999832  52.04999924
H     9.73999977  33.65999985  56.63999939
H     7.44000006  33.59000015  57.29999924
H     5.09000015  33.13000107  56.72999954
H     6.35999966  31.59000015  52.84000015
H    14.51000023  32.93000031  52.48000336
H     3.54999995  31.60000038  55.21999741
H     4.34999990  30.88999939  53.87000275
S    15.97000027  34.43999863  51.06999969
C    18.63000107  34.84000015  50.31999969
C    17.38999939  34.31000137  50.01999664
C    17.02999878  33.91999817  48.68999863
C    18.04999924  33.90999985  47.75000000
C    19.37999916  34.31000137  48.02999878
C    20.45000076  34.26000214  47.09999847
C    21.75000000  34.47999954  47.50999832
C    22.03000069  34.93000031  48.82999802
C    20.98999977  35.13999939  49.71000290
C    19.65999985  34.80999756  49.34999847
C    15.57999992  33.77000046  48.55999756
C    14.88000011  34.25000000  49.68999863
C    13.48999977  34.31000137  49.73999786
C    23.47999954  35.06999969  49.23999786
H    23.65150452  34.69126129  50.24758911
H    18.86000061  34.99000168  51.37000275
H    17.88999939  33.75999832  46.69000244
H    20.27000046  33.90999985  46.09000397
H    22.55000114  34.18999863  46.84000015
H    21.11999893  35.40999985  50.76000214
H    13.04999924  34.69000244  50.65999985
H    24.04999924  34.40000153  48.57999802
H    23.84000015  36.09000015  49.06000137
S    12.30999947  32.86999893  46.29000092
C     9.56999969  32.93000031  46.90999985
C    10.86999989  33.22999954  47.27000427
C    11.25000000  33.81999969  48.50999832
C    10.24000072  33.97999954  49.43999863
C     8.89999962  33.59000015  49.19000244
C     7.83999968  33.82999802  50.11000061
C     6.52999973  33.54999924  49.79999924
C     6.19999981  32.93999863  48.55999756
C     7.21000004  32.70999908  47.64999771
C     8.56999969  33.06000137  47.90000153
C    12.69999981  33.88000107  48.67000198
C    13.43999958  33.45999908  47.52999878
C    14.81999969  33.38999939  47.44999695
C     4.76999998  32.50999832  48.33000183
H     4.16702843  33.24065781  47.79087448
H     9.46000004  32.59999847  45.87999725
H    10.42000008  34.36999893  50.43000031
H     8.01999950  34.18000031  51.11999893
H     5.84999990  33.39999771  50.63000107
H     7.05999947  32.19000244  46.70000076
H    15.31000042  33.04999924  46.53999710
H     4.51999998  32.22999954  49.36000061
H     4.74000025  31.54000092  47.83000183
