96

S    15.25000000  33.72999954  57.29000092
C    17.98999977  33.75999832  56.65999985
C    16.70999908  33.39999771  56.32999802
C    16.28000069  32.79999924  55.10000229
C    17.28000069  32.62000275  54.15000153
C    18.56999969  33.18000031  54.34000015
C    19.63999939  32.95000076  53.43000031
C    20.95999908  33.18999863  53.73000336
C    21.31999969  33.93000031  54.88999939
C    20.29000092  34.15000153  55.77000046
C    18.93000031  33.77000046  55.59999847
C    14.84000015  32.69000244  54.94999695
C    14.09999943  33.25999832  56.02000427
C    12.71999931  33.34000015  56.00000000
C    22.73999977  34.29999924  55.26000214
H    23.25263405  33.63784409  55.95775604
H    18.18000031  34.27000046  57.60000229
H    17.30999947  31.87999916  53.36000061
H    19.42000008  32.57999802  52.43000031
H    21.76000214  32.99000168  53.02999878
H    20.59000015  34.48999786  56.76000214
H    12.28000069  33.77999878  56.90000153
H    23.29999924  34.41999817  54.31999969
H    22.77000046  35.29999924  55.70999908
S    11.64000034  32.00000000  52.47000122
C     8.89999962  32.11000061  53.11999893
C    10.21000004  32.43000031  53.40999985
C    10.52000046  32.93999863  54.72000122
C     9.55000019  33.15999985  55.68000031
C     8.19999981  32.86999893  55.38000107
C     7.16000032  32.92000198  56.36000061
C     5.95000029  32.38999939  55.98999786
C     5.55000019  31.94999886  54.69999695
C     6.53999996  32.00999832  53.75999832
C     7.88999987  32.34000015  54.08000183
C    11.97000027  32.97999954  54.87999725
C    12.72999954  32.50999832  53.76999664
C    14.11000061  32.34999847  53.81000137
C     4.18000031  31.38999939  54.36999893
H     3.83817816  31.97394562  53.51544189
H     8.73999977  31.61000061  52.16999817
H     9.77999973  33.54000092  56.66999817
H     7.39000034  33.32999802  57.34000397
H     5.17000008  32.34999847  56.73999786
H     6.30999994  31.53000069  52.81000137
H    14.52000046  31.86000061  52.93000031
H     3.44000006  31.54999924  55.15999603
H     4.21000004  30.31999969  54.10999680
S    11.72999954  30.29999924  49.29000092
C     9.11000061  29.69000053  50.14999771
C    10.47000027  29.54999924  50.28999710
C    11.03000069  28.90999985  51.43000031
C    10.15999985  28.31000137  52.34000397
C     8.76000023  28.47999954  52.23999786
C     7.90000010  27.73999977  53.09999847
C     6.53999996  27.67000008  52.91999817
C     6.00000000  28.36000061  51.79999924
C     6.78999996  29.06999969  50.91999817
C     8.19999981  29.11999893  51.07999802
C    12.46999931  29.11000061  51.46999741
C    13.04999924  29.79999924  50.37000275
C    14.42000008  30.03999901  50.35999680
C     4.51999998  28.22999954  51.52999878
H     4.19237089  28.60748482  50.56135941
H     8.71999931  30.27000046  49.31999969
H    10.52999973  27.53000069  52.98999786
H     8.43000031  27.20000076  53.88000107
H     5.92000008  27.00000000  53.50999832
H     6.35999966  29.44999886  50.00000000
H    14.84000015  30.69000053  49.59999847
H     4.19000006  27.19000053  51.65999985
H     4.11999989  28.77000046  52.38999939
S    15.77000046  28.54000092  53.81000137
C    18.39999962  29.11999893  53.22999954
C    17.07999992  29.27999878  52.88999939
C    16.61999893  29.84999847  51.65999985
C    17.57999992  30.48999977  50.90999985
C    18.95000076  30.36999893  51.20999908
C    20.02000046  30.78000069  50.35999680
C    21.34000015  30.45999908  50.56000137
C    21.77999878  29.77999878  51.72000122
C    20.79000092  29.40999985  52.60000229
C    19.40000153  29.60000038  52.35000229
C    15.18000031  29.67000008  51.46999741
C    14.59000015  28.97000122  52.55000305
C    13.25000000  28.61000061  52.51999664
C    23.23999786  29.46000099  51.97000122
H    23.66675758  30.05035019  52.78084183
H    18.53999901  28.61000061  54.19000244
H    17.42000008  31.00000000  49.95999908
H    19.79999924  31.24000168  49.40000153
H    22.06999969  30.86999893  49.86000061
H    21.11000061  28.81999969  53.44999695
H    12.94000053  28.18000031  53.47000122
H    23.75999832  29.75000000  51.04999924
H    23.28000069  28.36999893  52.00000000
