96

S    15.34999943  33.74000168  56.90999985
C    18.04999924  33.70999908  56.27999878
C    16.76000023  33.45000076  55.86999893
C    16.46999931  33.11999893  54.50000000
C    17.46999931  32.86000061  53.59000397
C    18.78999901  33.13000107  54.03999710
C    19.85000038  33.18999863  53.09999847
C    21.12999916  33.54000092  53.43000031
C    21.37000084  33.97999954  54.75999832
C    20.45999908  33.81000137  55.77999878
C    19.12999916  33.50000000  55.38999939
C    15.01999950  33.15000153  54.31999969
C    14.32999992  33.65000153  55.45999908
C    12.94999981  33.61999893  55.63000107
C    22.75000000  34.52000046  55.06999969
H    23.20648384  33.85667038  55.80465698
H    18.12999916  34.11000061  57.28000259
H    17.20999908  32.78000259  52.54000092
H    19.63999939  33.11999893  52.02999878
H    21.87999916  33.45999908  52.64999771
H    20.62999916  34.04000092  56.83000183
H    12.57999992  33.77000046  56.63000107
H    23.22999954  34.45000076  54.09000015
H    22.73999977  35.59999847  55.30000305
S    11.76000023  32.47999954  52.02999878
C     9.06000042  32.50999832  52.74000168
C    10.36000061  32.76000214  53.09000015
C    10.72999954  33.20999908  54.40000153
C     9.73999977  33.36999893  55.34999847
C     8.38000011  33.13999939  55.01999664
C     7.31999969  33.25000000  55.97000122
C     6.01999998  32.90999985  55.70000076
C     5.71000004  32.55000305  54.36000061
C     6.67000008  32.40000153  53.39000320
C     8.02999973  32.72999954  53.68999863
C    12.18000031  33.25999832  54.52000046
C    12.88000011  32.86999893  53.34999847
C    14.26000023  32.80999756  53.20000076
C     4.28000021  32.15999985  54.03999710
H     3.72511888  32.96386719  53.55625534
H     8.69000053  32.11999893  51.79000092
H    10.00000000  33.65999985  56.36000061
H     7.60999966  33.58000183  56.97000122
H     5.22000027  32.86000061  56.43000031
H     6.51000023  31.98999786  52.38999939
H    14.63000107  32.45999908  52.23999786
H     3.89999986  32.00999832  55.06000137
H     4.46999979  31.24000168  53.47999954
S    15.50000000  34.43999863  50.86000061
C    18.17000008  34.54999924  50.26000214
C    16.92000008  34.17000198  49.82999802
C    16.65999985  33.68000031  48.50999832
C    17.71999931  33.47999954  47.64999771
C    19.04000092  33.80000305  48.04999924
C    20.17000008  33.70999908  47.19999695
C    21.45000076  33.91999817  47.68000031
C    21.65999985  34.57999802  48.90999603
C    20.55999947  34.80999756  49.69999695
C    19.23999977  34.40999985  49.34000015
C    15.21999931  33.59999847  48.30999756
C    14.50000000  34.03000259  49.45000076
C    13.12999916  34.27999878  49.52000046
C    23.03999901  35.07999802  49.29000092
H    23.53846931  34.44623184  50.02346039
H    18.34000015  35.00999832  51.23000336
H    17.60000038  33.15999985  46.60999680
H    20.06000137  33.25999832  46.22000122
H    22.27999878  33.74000168  47.00000000
H    20.79999924  35.25000000  50.66999817
H    12.74000072  34.57999802  50.48999786
H    23.55999947  35.06999969  48.31999969
H    23.08000183  36.06999969  49.75999832
S    11.97000027  33.09999847  45.86000061
C     9.30999947  32.83000183  46.72000122
C    10.57000065  33.34000015  46.93000031
C    10.98999977  33.86000061  48.18999863
C    10.07999992  34.06999969  49.20000076
C     8.75000000  33.59999847  49.05000305
C     7.76999998  33.68000031  50.07999802
C     6.52999973  33.15999985  49.79999924
C     6.17000008  32.49000168  48.61000061
C     7.11999989  32.37999725  47.61000061
C     8.40999985  32.93000031  47.81999969
C    12.43999958  33.95000076  48.34999847
C    13.09999943  33.56999969  47.15000153
C    14.47000027  33.38000107  47.15000153
C     4.74000025  32.04999924  48.36000061
H     4.41267204  32.39155960  47.37801743
H     9.11000061  32.18000031  45.87999725
H    10.36000061  34.47000122  50.17000198
H     7.95000029  34.24000168  50.98999786
H     5.72000027  33.45999908  50.47000122
H     6.77999973  32.04999924  46.63999939
H    15.03999901  33.15000153  46.25000000
H     4.13000011  32.61000061  49.06999969
H     4.61000013  30.95999908  48.37999725
