96

S    14.75999928  33.95999908  56.97000122
C    17.46999931  33.69999695  56.45999908
C    16.18000031  33.50000000  56.02000427
C    15.82999992  33.11000061  54.68999863
C    16.82999992  32.77000046  53.79000092
C    18.18000031  32.86999893  54.20000076
C    19.22999954  32.77000046  53.25000000
C    20.53999901  33.09000015  53.54000092
C    20.85000038  33.52000046  54.86000061
C    19.81999969  33.81000137  55.72999954
C    18.46999931  33.46999741  55.47999954
C    14.39000034  33.09999847  54.45999908
C    13.69999981  33.55999756  55.61000061
C    12.30999947  33.61999893  55.70000076
C    22.22999954  34.02000046  55.20999908
H    22.73481369  33.41564178  55.96366501
H    17.64999962  34.20000076  57.41000366
H    16.64999962  32.61000061  52.72999573
H    18.97999954  32.61000061  52.21000290
H    21.28999901  33.20000076  52.76000214
H    20.17000008  34.26000214  56.65000153
H    11.77000046  34.01000214  56.56999969
H    22.72999954  34.03000259  54.23999786
H    22.18000031  35.06999969  55.51000214
S    11.19999981  32.37999725  52.08000183
C     8.56999969  32.13999939  52.81000137
C     9.82999992  32.52000046  53.20000076
C    10.15999985  33.09000015  54.47000122
C     9.11000061  33.29999924  55.34999847
C     7.77999973  32.99000168  54.99000168
C     6.71000004  33.16999817  55.90000153
C     5.45000029  32.66999817  55.63999939
C     5.22000027  31.90999985  54.45999908
C     6.21999979  31.77000046  53.52000427
C     7.50999975  32.33000183  53.74000168
C    11.61000061  33.20999908  54.55999756
C    12.30000019  32.88999939  53.36999893
C    13.68000031  32.72000122  53.31999969
C     3.79999995  31.45000076  54.27999878
H     3.26213431  31.92417145  53.45904541
H     8.43000031  31.70999908  51.83000183
H     9.32999992  33.77000046  56.30000305
H     6.77999973  33.80000305  56.77999878
H     4.57999992  32.86999893  56.26999664
H     5.98000002  31.42000008  52.51999664
H    14.04999924  32.27000046  52.39999771
H     3.25999999  31.61999893  55.21999741
H     3.65999985  30.40999985  53.96999741
S    15.60999966  34.43999863  51.17000198
C    18.30000114  34.25000000  50.43000031
C    16.97999954  34.02000046  50.13000107
C    16.60000038  33.31000137  48.94000244
C    17.60000038  32.97999954  48.04000092
C    18.96999931  33.25999832  48.26000214
C    19.96000099  33.13999939  47.25000000
C    21.28000069  33.40999985  47.56000137
C    21.64999962  33.90999985  48.83999634
C    20.69999886  34.06999969  49.80999756
C    19.31999969  33.87000275  49.52000046
C    15.14999962  33.20999908  48.86000061
C    14.47999954  33.82999802  49.94999695
C    13.09999943  33.88999939  50.00000000
C    23.05000114  34.43999863  49.06999969
H    23.49889183  33.84860611  49.86803055
H    18.60000038  34.66999817  51.38999939
H    17.19000053  32.76000214  47.04999924
H    19.60000038  32.81999969  46.27999878
H    22.06999969  33.34000015  46.81999969
H    21.05999947  34.38999939  50.79000092
H    12.61000061  34.31999969  50.86000061
H    23.64000130  34.38999939  48.15000153
H    22.95999908  35.51000214  49.29000092
S    11.92999935  32.52999878  46.51000214
C     9.21000004  32.52999878  47.08000183
C    10.50000000  32.75000000  47.52999878
C    10.81999969  33.34000015  48.79000092
C     9.76000023  33.77999878  49.55999756
C     8.43000031  33.48999786  49.15000153
C     7.34000015  33.61999893  50.06000137
C     6.05000019  33.27999878  49.72999954
C     5.66999960  32.90999985  48.40999985
C     6.72999954  32.70000076  47.56000137
C     8.10000038  32.93999863  47.85999680
C    12.27000046  33.38999939  48.97999573
C    13.01000023  32.88000107  47.88000107
C    14.37999916  32.72999954  47.78999710
C     4.23999977  32.50999832  48.16999817
H     3.72293997  33.13330460  47.44045258
H     9.04999924  32.07999802  46.11000061
H     9.94000053  34.01000214  50.59999847
H     7.39000034  34.04999924  51.05999756
H     5.28999996  33.34999847  50.50000000
H     6.70000029  32.07999802  46.66999817
H    14.80000019  32.37999725  46.84999847
H     3.68999982  32.59999847  49.12000275
H     4.19000006  31.42999840  47.95000076
