96

S    15.29999924  33.79000092  57.02999878
C    17.97000122  33.79000092  56.35000229
C    16.69000053  33.47999954  55.97000122
C    16.31000137  32.84000015  54.73999786
C    17.35000038  32.70000076  53.85000229
C    18.70000076  33.01000214  54.15999985
C    19.78000069  32.63999939  53.31999969
C    21.09000015  32.88999939  53.66000366
C    21.38000107  33.68999863  54.79999924
C    20.36999893  34.02000046  55.66999817
C    19.03000069  33.59999847  55.43000031
C    14.85000038  32.83000183  54.65000153
C    14.14000034  33.25000000  55.79999924
C    12.76999950  33.44000244  55.84000015
C    22.79000092  34.22999954  54.93999863
H    23.28101158  33.70340729  55.75835419
H    18.17000008  34.18999863  57.34000397
H    17.12000084  32.38999939  52.83000183
H    19.64999962  32.14999771  52.36000061
H    21.80000114  32.68000031  52.85999680
H    20.63999939  34.40999985  56.65000153
H    12.13999939  33.84999847  56.63000107
H    23.23999786  34.03000259  53.95000076
H    22.76000023  35.31999969  54.98000336
S    11.67000008  32.16999817  52.21000290
C     8.97999954  32.06999969  52.88000107
C    10.24000072  32.54000092  53.20000076
C    10.62999916  33.00000000  54.48999786
C     9.64999962  33.09999847  55.45999908
C     8.30999947  32.76000214  55.14999771
C     7.23000002  32.85000229  56.07999802
C     5.93999958  32.49000168  55.79999924
C     5.58000040  32.09999847  54.47999954
C     6.58999968  32.06000137  53.54000092
C     7.96999979  32.22999954  53.86000061
C    12.06999969  33.13000107  54.65999985
C    12.76999950  32.70000076  53.50000000
C    14.11999893  32.36000061  53.54999924
C     4.19000006  31.80999947  53.95999908
H     3.79256225  32.49132156  53.20770645
H     8.75000000  31.59000015  51.93999863
H     9.88000011  33.58000183  56.40999603
H     7.37999964  33.13000107  57.11999893
H     5.13000011  32.63999939  56.51000214
H     6.32000017  31.93000031  52.50000000
H    14.63000107  31.77000046  52.80000305
H     3.51999998  31.68999863  54.81999969
H     4.21999979  30.81999969  53.47999954
S    11.69000053  30.03999901  49.38000107
C     9.04999924  29.59000015  50.10000229
C    10.38000011  29.37999916  50.37000275
C    10.84000015  28.68000031  51.52999878
C     9.92000008  28.18000031  52.42000198
C     8.52999973  28.31999969  52.15999985
C     7.46000004  27.70999908  52.87000275
C     6.11999989  27.90999985  52.62000275
C     5.68000031  28.65999985  51.50000000
C     6.70000029  29.21999931  50.76000214
C     8.09000015  29.06999969  51.00999832
C    12.30000019  28.69999886  51.62000275
C    12.88000011  29.37000084  50.51000214
C    14.21000004  29.79000092  50.59000015
C     4.21999979  28.88999939  51.22000122
H     3.92959714  28.54293251  50.22838211
H     8.71000004  30.22999954  49.29000092
H    10.11999989  27.70000076  53.37999725
H     7.72000027  27.14999962  53.75999832
H     5.36000013  27.60000038  53.34000015
H     6.44000006  29.77000046  49.86000061
H    14.61999989  30.19000053  49.66999817
H     3.73000002  28.31000137  52.01000214
H     4.05000019  29.96000099  51.38000107
S    15.64000034  28.26000023  53.95000076
C    18.26000023  28.98999977  53.37999725
C    16.93000031  29.11000061  53.06999969
C    16.46999931  29.76000023  51.88000107
C    17.43999863  30.25000000  51.02000427
C    18.81999969  30.06000137  51.25000000
C    19.76000023  30.38000107  50.22999573
C    21.09999847  30.22999954  50.52999878
C    21.54000092  29.76000023  51.79999924
C    20.65000153  29.26000214  52.71999741
C    19.26000023  29.47000122  52.49000168
C    15.06000042  29.47000122  51.65999985
C    14.46000004  28.74000168  52.70999908
C    13.12000084  28.34000015  52.69000244
C    23.02999878  29.51999855  51.91999817
H    23.44515800  29.87073517  52.86484146
H    18.60999870  28.42000008  54.23999786
H    17.13000107  30.59000015  50.04000092
H    19.40999985  30.78000069  49.29000092
H    21.84000015  30.40999985  49.77000427
H    20.89999962  28.78000069  53.66000366
H    12.79999924  27.89999962  53.62999725
H    23.57000160  30.03999901  51.11999893
H    23.19999886  28.45000076  51.75000000
