96

S    15.38000011  33.72999954  56.84000015
C    18.04000092  33.75000000  56.22000122
C    16.77000046  33.40999985  55.79999924
C    16.36999893  32.93000031  54.51000214
C    17.40999985  32.85000229  53.60000229
C    18.71999931  33.31000137  53.89999771
C    19.82999992  33.18999863  53.02000046
C    21.11999893  33.46999741  53.36999893
C    21.40999985  33.93000031  54.68000031
C    20.38999939  34.08000183  55.59000015
C    19.05999947  33.70999908  55.24000168
C    14.93000031  32.90000153  54.36000061
C    14.25000000  33.34999847  55.52000046
C    12.88000011  33.56999969  55.54000092
C    22.82999992  34.27000046  55.07999802
H    23.24961090  33.54457092  55.77697754
H    18.27999878  34.13999939  57.21000290
H    17.20000076  32.33000183  52.67000198
H    19.67000008  32.77000046  52.02999878
H    21.93000031  33.38999939  52.64999771
H    20.58000183  34.45999908  56.59000015
H    12.30999947  33.69999695  56.45999908
H    23.52999878  34.31000137  54.23999786
H    22.72000122  35.19000244  55.68000031
S    11.57999992  32.40999985  51.98999786
C     8.90999985  32.37999725  52.70000076
C    10.19999981  32.72000122  53.06000137
C    10.65999985  33.11000061  54.36000061
C     9.63999939  33.31000137  55.27000046
C     8.28999996  33.01000214  54.98000336
C     7.23999977  33.16999817  55.93000031
C     5.89999962  33.04999924  55.61000061
C     5.59000015  32.36000061  54.40999985
C     6.54999971  32.13999939  53.46000290
C     7.92000008  32.43999863  53.70999908
C    12.10999966  33.25999832  54.40999985
C    12.76999950  32.80999756  53.23999786
C    14.14999962  32.63999939  53.22999954
C     4.21999979  31.78999901  54.09999847
H     3.74236298  32.39595795  53.33007812
H     8.67000008  31.96000099  51.72000122
H     9.81999969  33.75999832  56.24000168
H     7.46999979  33.47999954  56.95000076
H     5.18000031  33.36000061  56.36000061
H     6.38999987  31.78999901  52.43999863
H    14.68000031  32.31999969  52.34000397
H     3.68000007  31.84000015  55.05000305
H     4.23999977  30.72000122  53.86000061
S    15.71000004  34.33000183  50.97999954
C    18.40999985  34.40999985  50.38999939
C    17.14999962  34.00000000  50.00000000
C    16.81999969  33.59999847  48.66000366
C    17.86000061  33.25000000  47.81999969
C    19.19000053  33.54999924  48.20999908
C    20.26000023  33.32999802  47.29999924
C    21.52000046  33.79000092  47.55000305
C    21.77000046  34.48999786  48.75999832
C    20.79000092  34.61000061  49.72000122
C    19.47000122  34.15999985  49.47999954
C    15.38000011  33.46999741  48.48999786
C    14.65000057  33.88999939  49.62999725
C    13.27000046  34.05999756  49.58000183
C    23.13999939  35.07999802  49.02999878
H    23.73776817  34.41106796  49.64911652
H    18.60000038  35.00999832  51.26999664
H    17.71999931  32.88999939  46.81000137
H    20.03999901  32.97000122  46.29000092
H    22.27999878  33.63999939  46.79000092
H    21.09999847  35.25000000  50.54999924
H    12.68000031  34.31000137  50.45999908
H    23.64999962  35.20999908  48.06999969
H    22.96999931  36.08000183  49.45000076
S    12.15999985  32.36000061  46.24000168
C     9.44000053  32.38999939  46.91999817
C    10.72999954  32.78000259  47.19999695
C    11.11999989  33.52000046  48.36000061
C    10.15999985  33.90000153  49.27999878
C     8.84000015  33.45000076  49.05000305
C     7.79999971  33.72000122  50.00000000
C     6.51000023  33.27999878  49.82999802
C     6.10000038  32.56999969  48.68000031
C     7.09999990  32.27999878  47.77999878
C     8.45000076  32.70000076  47.88999939
C    12.56999969  33.68000031  48.43000031
C    13.30000019  33.18999863  47.31999969
C    14.68000031  33.01000214  47.36999893
C     4.67999983  32.11999893  48.40999985
H     4.22996426  32.65575790  47.57421875
H     9.30999947  31.77999878  46.03000259
H    10.52000046  34.52999878  50.08999634
H     8.19999981  34.17000198  50.90000153
H     5.79999971  33.48999786  50.63000107
H     6.75000000  31.63999939  46.97000122
H    15.24000072  32.63999939  46.52000046
H     4.21999979  32.29000092  49.40000153
H     4.59000015  31.04999924  48.16999817
