96

S    15.24000072  34.15999985  57.23999786
C    17.97999954  34.11000061  56.65000153
C    16.68000031  33.97999954  56.22000122
C    16.32999992  33.52999878  54.91000366
C    17.29999924  33.51000214  53.93000031
C    18.64999962  33.75000000  54.25000000
C    19.70999908  33.52999878  53.31999969
C    21.02999878  33.61999893  53.68000031
C    21.28999901  34.13000107  54.98000336
C    20.30999947  34.34000015  55.90999985
C    18.96000099  33.97999954  55.63999939
C    14.89999962  33.25999832  54.75000000
C    14.19000053  33.77000046  55.86000061
C    12.81000042  33.97000122  55.86000061
C    22.69000053  34.59000015  55.34000015
H    23.17510796  34.01928329  56.13187027
H    18.12999916  34.52000046  57.64999771
H    17.10000038  33.13000107  52.93000031
H    19.44000053  33.04000092  52.37999725
H    21.75000000  33.45000076  52.88000107
H    20.55000114  34.71999741  56.90999985
H    12.30000019  34.45999908  56.68000031
H    23.31999969  34.47000122  54.45000076
H    22.65000153  35.65999985  55.54000092
S    11.64999962  32.44999695  52.39999771
C     8.93999958  32.63999939  52.97000122
C    10.22999954  32.92000198  53.34999847
C    10.55999947  33.38000107  54.65999985
C     9.52000046  33.77000046  55.48999786
C     8.19000053  33.45000076  55.13000107
C     7.14999962  33.59999847  56.09000397
C     5.84000015  33.29999924  55.77000046
C     5.55999994  32.59000015  54.58000183
C     6.57000017  32.25000000  53.70999908
C     7.86999989  32.79999924  53.88000107
C    12.01000023  33.43000031  54.85000229
C    12.71000004  32.84000015  53.75999832
C    14.09999943  32.86000061  53.68000031
C     4.18000031  32.00999832  54.33000183
H     3.59531760  32.73728561  53.76670837
H     8.64999962  32.27000046  51.97999954
H     9.68999958  34.06999969  56.52000046
H     7.42999983  33.72999954  57.12999725
H     5.07999992  33.52000046  56.52000046
H     6.35999966  31.55999947  52.90000153
H    14.52999973  32.57999802  52.71999741
H     3.68999982  31.77000046  55.27000046
H     4.30000019  31.02999878  53.83999634
S    11.57999992  30.58000183  49.43999863
C     8.90999985  30.10999870  50.07999802
C    10.22999954  29.99000168  50.43000031
C    10.70000076  29.38999939  51.65000153
C     9.71000004  28.85999870  52.44999695
C     8.34000015  29.11000061  52.22000122
C     7.35000038  28.54999924  53.09000015
C     6.00000000  28.62999916  52.84000015
C     5.53999996  29.25000000  51.65000153
C     6.48999977  29.86000061  50.86000061
C     7.90000010  29.73999977  51.00000000
C    12.15000057  29.40999985  51.76000214
C    12.75000000  30.13000107  50.70000076
C    14.06999969  30.56999969  50.65999985
C     4.11000013  29.15999985  51.18999863
H     3.96085310  28.40006256  50.42295837
H     8.64999962  30.43000031  49.06999969
H    10.01000023  28.26999855  53.31999969
H     7.79999971  27.98999977  53.90999603
H     5.25000000  28.15999985  53.47000122
H     6.14000034  30.39999962  49.99000168
H    14.56999969  31.15999985  49.89999771
H     3.51999998  28.88999939  52.08000183
H     3.86000013  30.17999840  50.87999725
S    15.40999985  28.85000038  54.01000214
C    18.05999947  29.51000023  53.48999786
C    16.72999954  29.68000031  53.15999985
C    16.31999969  30.30999947  51.93999863
C    17.26000023  30.88000107  51.11000061
C    18.63999939  30.66999817  51.38000107
C    19.60000038  31.14000130  50.45000076
C    20.94000053  30.90999985  50.66999817
C    21.32999802  30.28000069  51.88000107
C    20.42000008  29.70999908  52.74000168
C    19.04000092  30.00000000  52.58999634
C    14.89999962  30.10999870  51.69000244
C    14.34999943  29.20000076  52.63000107
C    13.00000000  28.87000084  52.72999573
C    22.79000092  29.96999931  52.09000015
H    23.16020584  30.42563629  53.00839233
H    18.46999931  29.13999939  54.41999817
H    16.95999908  31.38000107  50.20000076
H    19.30999947  31.80999947  49.64000320
H    21.75000000  31.28999901  50.05000305
H    20.81999969  29.10000038  53.54000092
H    12.61999989  28.12999916  53.43000031
H    23.19000053  30.46999931  51.19999695
H    22.93999863  28.88000107  52.04999924
