96

S    15.26000023  34.17000198  56.90999985
C    17.97999954  34.11999893  56.39999771
C    16.73999977  33.59999847  56.12999725
C    16.39999962  32.93999863  54.91000366
C    17.38999939  32.76000214  53.95999908
C    18.70000076  33.20000076  54.22999954
C    19.78999901  33.02000046  53.31999969
C    21.05999947  33.47999954  53.54000092
C    21.35999870  34.11000061  54.78000259
C    20.35000038  34.27999878  55.70000076
C    19.02000046  33.86000061  55.47000122
C    14.96999931  32.78000259  54.65000153
C    14.22999954  33.41999817  55.68000031
C    12.84999943  33.59000015  55.75000000
C    22.76000023  34.59999847  55.07999802
H    23.26706314  33.90010834  55.74418259
H    18.09000015  34.90000153  57.15999985
H    17.18000031  32.06999969  53.13999939
H    19.69000053  32.38999939  52.43999863
H    21.81999969  33.25999832  52.80000305
H    20.63999939  34.63000107  56.69000244
H    12.43999958  34.06999969  56.63000107
H    23.34000015  34.63000107  54.15000153
H    22.70000076  35.65999985  55.35999680
S    11.84999943  31.77999878  52.31999969
C     9.15000057  32.04000092  52.77999878
C    10.42000008  32.38999939  53.18000031
C    10.73999977  33.02000046  54.41999817
C     9.70000076  33.20000076  55.31000137
C     8.36999989  32.88000107  54.97000122
C     7.35000038  32.79000092  55.96000290
C     6.05999994  32.42000198  55.66999817
C     5.75000000  32.04999924  54.34000015
C     6.74000025  31.94000053  53.39000320
C     8.07999992  32.33000183  53.67000198
C    12.18000031  33.15000153  54.59999847
C    12.89000034  32.47000122  53.57999802
C    14.27999973  32.36000061  53.50999832
C     4.32000017  31.61000061  54.09000015
H     3.90729070  32.07252121  53.19342422
H     8.90999985  31.57999992  51.83000183
H     9.98000050  33.59999847  56.27999878
H     7.63000011  33.02999878  56.97999954
H     5.36999989  32.29999924  56.50000000
H     6.53999996  31.55999947  52.38999939
H    14.85000038  32.06000137  52.63999939
H     3.74000025  31.87999916  54.98000336
H     4.21999979  30.52000046  54.09999847
S    11.97000027  29.90999985  49.09000015
C     9.28999996  29.50000000  49.93000031
C    10.65000057  29.36000061  50.13000107
C    11.21999931  28.78000069  51.31000137
C    10.32999992  28.32999992  52.28000259
C     8.93000031  28.31000137  52.08000183
C     8.01000023  27.72000122  52.98999786
C     6.67999983  28.02000046  52.84000015
C     6.17999983  28.69999886  51.70000076
C     7.02000046  29.17000008  50.72000122
C     8.42000008  28.95000076  50.90000153
C    12.64999962  28.97999954  51.44000244
C    13.22000027  29.61999893  50.31999969
C    14.57999992  29.90999985  50.28999710
C     4.67999983  28.88000107  51.55000305
H     4.34499931  28.73031998  50.52361679
H     8.94999981  30.05000114  49.05000305
H    10.62999916  27.96999931  53.26000214
H     8.38999939  27.15999985  53.85000229
H     6.01000023  27.77000046  53.66000366
H     6.67999983  29.77999878  49.88999939
H    15.01999950  30.45000076  49.45000076
H     4.15000010  28.13999939  52.15999985
H     4.46999979  29.89999962  51.88999939
S    15.95999908  28.80000114  53.89999771
C    18.57999992  29.36000061  53.25000000
C    17.27000046  29.34999847  52.84000015
C    16.79999924  29.82000160  51.56999969
C    17.77000046  30.25000000  50.68000031
C    19.12999916  30.32999992  51.07999802
C    20.13999939  30.71000099  50.14999771
C    21.50000000  30.58000183  50.34000015
C    21.88999939  30.20000076  51.65000153
C    20.95999908  29.90999985  52.62000275
C    19.55999947  29.89999962  52.37999725
C    15.38000011  29.57999992  51.38999939
C    14.80999947  29.02000046  52.56999969
C    13.47000027  28.62999916  52.51999664
C    23.35000038  29.93999863  51.95000076
H    23.76963806  30.35252571  52.86751175
H    18.85000038  28.85999870  54.16999817
H    17.63000107  30.69000053  49.69999695
H    19.81999969  30.98999977  49.15000153
H    22.27000046  30.72999954  49.59000015
H    21.30000114  29.51999855  53.57999802
H    13.07000065  27.98999977  53.29999924
H    23.90000153  30.28000069  51.05999756
H    23.44000053  28.85000038  52.02000046
