96

S    15.47999954  33.84000015  56.97000122
C    18.12999916  33.81000137  56.23000336
C    16.84999847  33.36999893  55.96000290
C    16.46999931  32.86000061  54.66999817
C    17.45000076  32.70999908  53.70999908
C    18.79999924  33.02999878  53.95999908
C    19.84000015  32.90000153  53.00000000
C    21.12999916  33.27000046  53.29000092
C    21.47999954  33.70999908  54.59000015
C    20.48999977  33.90999985  55.52000046
C    19.12999916  33.59000015  55.25000000
C    15.01999950  32.73999786  54.61000061
C    14.34999943  33.20999908  55.76000214
C    12.97000027  33.38999939  55.79999924
C    22.90999985  34.04999924  54.98000336
H    23.33951187  33.41289139  55.75312042
H    18.38999939  34.13000107  57.23999786
H    17.07999992  32.52000046  52.70000076
H    19.68000031  32.40999985  52.04000092
H    21.87999916  33.13999939  52.50999832
H    20.72000122  34.38000107  56.46999741
H    12.41000080  33.84999847  56.60999680
H    23.64000130  34.13999939  54.16999817
H    22.84000015  35.05000305  55.41999817
S    11.77999973  31.90999985  52.29999924
C     9.06999969  32.21999741  52.95999908
C    10.39000034  32.36000061  53.30999756
C    10.77000046  32.86999893  54.59000015
C     9.77000046  33.11000061  55.51000214
C     8.38999939  32.90999985  55.26000214
C     7.35000038  33.02999878  56.22000122
C     6.05999994  32.65000153  55.97000122
C     5.69999981  32.27999878  54.65000153
C     6.69000053  32.19000244  53.68999863
C     8.06999969  32.43999863  53.94000244
C    12.22000027  32.97999954  54.68000031
C    12.90999985  32.52999878  53.53000259
C    14.28999996  32.45999908  53.44999695
C     4.35999966  31.68000031  54.27999878
H     3.96704340  32.00151062  53.31546783
H     8.85000038  31.94000053  51.93000031
H    10.07999992  33.36000061  56.52999878
H     7.67000008  33.20000076  57.25000000
H     5.44000053  32.31999969  56.79999924
H     6.48000002  31.84999847  52.68000031
H    14.81999969  32.02999878  52.58999634
H     3.67000008  31.94999886  55.07999802
H     4.41000032  30.58000183  54.34999847
S    11.59000015  30.03000069  49.22999954
C     8.93999958  29.54000092  49.89999771
C    10.26999950  29.38999939  50.22999573
C    10.77000046  28.75000000  51.40999603
C     9.81999969  28.26999855  52.29999924
C     8.45000076  28.52999878  52.05999756
C     7.49000025  28.02000046  52.97999954
C     6.15000010  27.95999908  52.68000031
C     5.69000006  28.45999908  51.43000031
C     6.57999992  29.04000092  50.56000137
C     7.96999979  29.11000061  50.84000015
C    12.22000027  28.80000114  51.46999741
C    12.81999969  29.54000092  50.40999985
C    14.11000061  30.06000137  50.41999817
C     4.23999977  28.22000122  51.07999802
H     3.97706127  28.42608833  50.04245758
H     8.60999966  29.75000000  48.88999939
H    10.14999962  27.72999954  53.18999863
H     7.81000042  27.57999802  53.92000198
H     5.42000008  27.53000069  53.36000061
H     6.21999979  29.40000153  49.59000015
H    14.55999947  30.62000084  49.61000061
H     3.95000005  27.18000031  51.29000092
H     3.51999998  28.72999954  51.72000122
S    15.48999977  28.57999992  53.85000229
C    18.12999916  29.09000015  53.31999969
C    16.81999969  29.34999847  52.97000122
C    16.34000015  29.92000198  51.75000000
C    17.30999947  30.23999977  50.81999969
C    18.67000008  30.00999832  51.12999725
C    19.64999962  30.45999908  50.19000244
C    21.00000000  30.36999893  50.44000244
C    21.40999985  29.67000008  51.59999847
C    20.52000046  29.23999977  52.56000137
C    19.11999893  29.47000122  52.37999725
C    14.91000080  29.76000023  51.52999878
C    14.34000015  28.95999908  52.55000305
C    13.04999924  28.44000053  52.52999878
C    22.86000061  29.33000183  51.83000183
H    23.33780098  29.84346008  52.66436768
H    18.40999985  28.55999947  54.22000122
H    17.05999947  30.69999886  49.86000061
H    19.23999977  30.85000038  49.26000214
H    21.73000145  30.62999916  49.68000031
H    20.79000092  28.78999901  53.50999832
H    12.67000008  27.86999893  53.36999893
H    23.48999977  29.70999908  51.00999832
H    23.11000061  28.26000023  51.81000137
