96

S    15.46000004  33.90000153  56.95999908
C    18.13999939  33.88999939  56.31000137
C    16.86000061  33.52999878  55.93999863
C    16.44000053  33.08000183  54.64000320
C    17.48999977  32.90000153  53.75999832
C    18.84000015  33.08000183  54.15000153
C    19.84000015  33.13000107  53.13000107
C    21.14999962  33.41999817  53.43999863
C    21.50000000  33.68000031  54.79000092
C    20.55999947  33.87000275  55.77999878
C    19.22000122  33.54999924  55.45999908
C    15.00000000  33.04999924  54.45000076
C    14.35999966  33.54999924  55.61000061
C    12.97999954  33.74000168  55.68000031
C    22.85000038  34.33000183  55.04000092
H    23.39903069  33.78809738  55.81007004
H    18.27999878  34.38000107  57.27000427
H    17.42000008  32.85000229  52.68000031
H    19.52000046  33.00000000  52.09999847
H    21.78999901  33.55999756  52.57999802
H    20.79000092  34.40999985  56.70000076
H    12.53000069  34.05999756  56.60999680
H    23.45999908  34.61000061  54.16999817
H    22.53999901  35.28000259  55.48999786
S    11.71000004  32.40999985  52.11999893
C     9.06999969  32.56000137  52.85999680
C    10.36000061  32.93999863  53.13999939
C    10.75000000  33.39999771  54.43999863
C     9.73999977  33.54999924  55.38000107
C     8.38000011  33.31000137  55.05000305
C     7.30999994  33.38999939  55.97999954
C     6.01000023  33.06000137  55.65999985
C     5.60999966  32.56000137  54.38999939
C     6.63999987  32.50000000  53.47999954
C     8.00000000  32.81999969  53.75000000
C    12.20000076  33.34999847  54.59000015
C    12.81999969  32.79000092  53.43999863
C    14.19000053  32.55000305  53.41999817
C     4.18000031  32.13000107  54.13000107
H     3.63045120  32.74378204  53.41630173
H     8.78999996  32.09999847  51.91999817
H     9.96999931  33.77999878  56.42000198
H     7.57999992  33.61999893  57.01000214
H     5.23000002  33.20000076  56.39999771
H     6.48000002  32.14999771  52.45999908
H    14.67000008  32.06999969  52.56999969
H     3.61999989  32.11999893  55.06999969
H     4.26999998  31.14000130  53.67000198
S    12.20000076  30.31999969  49.43999863
C     9.52000046  29.86999893  50.21999741
C    10.85999966  29.63999939  50.38999939
C    11.35000038  28.95000076  51.55000305
C    10.42000008  28.52000046  52.48000336
C     9.02999973  28.68999863  52.29999924
C     8.10999966  28.12000084  53.22999954
C     6.77999973  28.09000015  52.90000153
C     6.25999975  28.82999802  51.81000137
C     7.13000011  29.48999786  50.97000122
C     8.53999996  29.36000061  51.11999893
C    12.79000092  29.04999924  51.70000076
C    13.38000107  29.77999878  50.63999939
C    14.75999928  29.97999954  50.65999985
C     4.78999996  29.13999939  51.63999939
H     4.40634155  28.70660782  50.71637726
H     9.28999996  30.50000000  49.36999893
H    10.59999943  27.95999908  53.40000153
H     8.39999962  27.53999901  54.10999680
H     6.11999989  27.46999931  53.50000000
H     6.84999990  30.15999985  50.15999603
H    15.27999973  30.40999985  49.80999756
H     4.19000006  28.94000053  52.52999878
H     4.86000013  30.22999954  51.59000015
S    16.01000023  28.61999893  54.20000076
C    18.71000099  29.13999939  53.62999725
C    17.38000107  29.34999847  53.33000183
C    16.94000053  29.84000015  52.05999756
C    17.87999916  30.36000061  51.18999863
C    19.25000000  30.20999908  51.50000000
C    20.27000046  30.56999969  50.56999969
C    21.61000061  30.35000038  50.84000015
C    22.04999924  29.76000023  52.04999924
C    21.07999992  29.37999916  52.95000076
C    19.69000053  29.50000000  52.67000198
C    15.51000023  29.69000053  51.81000137
C    14.86999989  29.04000092  52.90000153
C    13.52000046  28.72999954  52.84999847
C    23.50000000  29.38999939  52.27000427
H    23.86388779  29.84664345  53.19041824
H    18.96000099  28.52999878  54.48999786
H    17.70000076  30.65000153  50.15999603
H    20.02000046  30.96999931  49.59999847
H    22.32000160  30.52000046  50.02999878
H    21.31999969  28.85999870  53.87000275
H    13.03999996  28.12000084  53.61000061
H    24.06999969  29.70999908  51.38999939
H    23.54000092  28.29999924  52.30999756
