96

S    15.39000034  33.79000092  57.08000183
C    18.04999924  33.97000122  56.38000107
C    16.79000092  33.54000092  56.02000427
C    16.46000099  33.11000061  54.69999695
C    17.46000099  32.95000076  53.75000000
C    18.78000069  33.25999832  54.13000107
C    19.85999870  33.02000046  53.22999954
C    21.11999893  33.46999741  53.52000427
C    21.40999985  34.01000214  54.79999924
C    20.43999863  34.11000061  55.77000046
C    19.09000015  33.77999878  55.44000244
C    15.01000023  33.04000092  54.55999756
C    14.30999947  33.54000092  55.68999863
C    12.94000053  33.75000000  55.72999954
C    22.81999969  34.38999939  55.20000076
H    23.29184151  33.65364075  55.85057068
H    18.22000122  34.47000122  57.32999802
H    17.19000053  32.50999832  52.78999710
H    19.71999931  32.70999908  52.18999863
H    21.86000061  33.56999969  52.72999573
H    20.69000053  34.36000061  56.79999924
H    12.43000031  33.90000153  56.68000031
H    23.46999931  34.52000046  54.31999969
H    22.75000000  35.43000031  55.54999924
S    11.79999924  32.44999695  52.16999817
C     9.07999992  32.36000061  52.98999786
C    10.38000011  32.73999786  53.20000076
C    10.73999977  33.31999969  54.45999908
C     9.78999996  33.52999878  55.45000076
C     8.43999958  33.16999817  55.24000168
C     7.36999989  33.34999847  56.17000198
C     6.07999992  32.97999954  55.90000153
C     5.78999996  32.18000031  54.75999832
C     6.76999998  32.06999969  53.80000305
C     8.10000038  32.52999878  54.00000000
C    12.18000031  33.39999771  54.61000061
C    12.89000034  32.85000229  53.50999832
C    14.26000023  32.61000061  53.46000290
C     4.39000034  31.63999939  54.52999878
H     3.93436337  32.08851624  53.64720535
H     8.85999966  31.80000114  52.08000183
H    10.06000042  34.01000214  56.38000107
H     7.59999990  33.79000092  57.12999725
H     5.25000000  33.04999924  56.59999847
H     6.52999973  31.52000046  52.90000153
H    14.70000076  32.22999954  52.54000092
H     3.86999989  31.83000183  55.47000122
H     4.33999968  30.55999947  54.31999969
S    15.81999969  34.52999878  51.06999969
C    18.54999924  34.38999939  50.59000015
C    17.28000069  34.13000107  50.13000107
C    16.94000053  33.52999878  48.88000107
C    17.98999977  33.13999939  48.06999969
C    19.31999969  33.52000046  48.39000320
C    20.43000031  33.31999969  47.52999878
C    21.71999931  33.48999786  47.97000122
C    21.97999954  34.00000000  49.27000046
C    20.94000053  34.27999878  50.12000275
C    19.60000038  34.02000046  49.71000290
C    15.48999977  33.48999786  48.68000031
C    14.73999977  34.00000000  49.77000427
C    13.36999989  34.24000168  49.73999786
C    23.35000038  34.52999878  49.61999893
H    23.87688637  33.94615173  50.37472916
H    18.70000076  34.77000046  51.59999847
H    17.79999924  32.70000076  47.09999847
H    20.20000076  33.06999969  46.50000000
H    22.55000114  33.22999954  47.31999969
H    21.02999878  34.90000153  51.00999832
H    12.84999943  34.59999847  50.61999893
H    24.01000023  34.59000015  48.75000000
H    23.16999817  35.56999969  49.93000031
S    12.25999928  32.56000137  46.38000107
C     9.53999996  32.38999939  47.04000092
C    10.78999996  32.90999985  47.29999924
C    11.16000080  33.58000183  48.50999832
C    10.13000011  33.82999802  49.40999985
C     8.78999996  33.48999786  49.12000275
C     7.79999971  33.59999847  50.13000107
C     6.51000023  33.18000031  49.87999725
C     6.24000025  32.34999847  48.76999664
C     7.18999958  32.14999771  47.78999710
C     8.50000000  32.70999908  47.95000076
C    12.58999920  33.70999908  48.70999908
C    13.35000038  33.13000107  47.65999603
C    14.73999977  33.02999878  47.60000229
C     4.82999992  31.83000183  48.61000061
H     4.19886541  32.42567825  47.95050049
H     9.42000008  31.64999962  46.25999832
H    10.34000015  34.20999908  50.40999985
H     8.17000008  34.11999893  51.00999832
H     5.69999981  33.36000061  50.58000183
H     6.94999981  31.60000038  46.88999939
H    15.36999893  32.56000137  46.84999847
H     4.46000004  31.70000076  49.62999725
H     4.90999985  30.79999924  48.23999786
