96

S    15.67999935  33.61999893  57.05999756
C    18.35000038  33.77999878  56.23000336
C    17.06999969  33.34999847  56.00000000
C    16.62999916  32.80999756  54.75000000
C    17.57999992  32.65999985  53.75000000
C    18.90999985  33.09000015  53.94000244
C    19.86999893  33.06999969  52.88000107
C    21.12999916  33.55999756  53.09999847
C    21.54000092  34.11000061  54.34000015
C    20.62999916  34.20999908  55.37000275
C    19.30999947  33.70999908  55.18000031
C    15.18000031  32.72000122  54.61999893
C    14.52999973  33.22000122  55.77000046
C    13.14000034  33.34999847  55.84999847
C    22.98999977  34.45999908  54.56999969
H    23.28883934  33.76270676  55.35267258
H    18.59000015  34.17000198  57.22000122
H    17.19000053  32.22999954  52.83000183
H    19.52000046  32.75000000  51.90999985
H    21.90000153  33.52000046  52.34000397
H    21.02000046  34.52000046  56.32999802
H    12.61000061  33.81000137  56.68000031
H    23.61000061  34.38999939  53.66000366
H    23.09999847  35.47000122  54.98000336
S    11.87000084  32.36000061  52.25999832
C     9.17000008  32.37999725  52.98999786
C    10.48999977  32.47999954  53.36999893
C    10.86999989  32.88999939  54.68000031
C     9.84000015  33.22000122  55.54999924
C     8.47000027  33.06999969  55.22999573
C     7.39000034  33.38000107  56.10000229
C     6.09000015  33.01000214  55.84000015
C     5.78999996  32.34999847  54.61999893
C     6.80000019  32.06999969  53.72000122
C     8.13000011  32.50000000  53.95000076
C    12.31999969  32.90999985  54.80999756
C    13.00000000  32.54000092  53.61999893
C    14.37000084  32.33000183  53.54999924
C     4.40000010  31.80000114  54.41999817
H     3.81430101  32.44284058  53.76287460
H     8.80999947  32.07999802  52.01000214
H    10.05000019  33.54000092  56.56999969
H     7.78999996  33.75999832  57.04000092
H     5.33999968  33.15000153  56.60999680
H     6.44000006  31.47999954  52.88000107
H    14.93000031  31.98999786  52.68000031
H     3.84000015  31.65999985  55.34999847
H     4.44000006  30.81000137  53.95000076
S    15.65000057  34.43999863  51.03000259
C    18.31999969  34.59999847  50.20000076
C    17.02999878  34.18000031  49.95999908
C    16.64999962  33.47999954  48.76999664
C    17.61000061  33.13000107  47.84000015
C    18.93000031  33.61999893  47.97999954
C    20.00999832  33.18999863  47.15999985
C    21.34000015  33.38999939  47.43999863
C    21.64999962  34.26000214  48.52000427
C    20.63999939  34.65999985  49.36999893
C    19.26000023  34.38000107  49.15999985
C    15.19999981  33.39999771  48.66000366
C    14.51000023  33.82999802  49.81999969
C    13.12000084  33.91999817  49.80999756
C    23.02999878  34.79999924  48.81999969
H    23.53504181  34.13135529  49.51709747
H    18.53999901  34.92000198  51.22000122
H    17.34000015  32.57999802  46.93999863
H    19.65999985  32.52000046  46.38000107
H    22.20000076  33.09000015  46.86000061
H    20.88000107  35.16999817  50.30000305
H    12.58999920  34.31000137  50.68000031
H    23.61000061  34.75000000  47.88999939
H    23.03999901  35.82999802  49.19000244
S    11.97000027  32.47999954  46.29000092
C     9.26999950  32.40000153  47.02999878
C    10.55999947  32.77000046  47.31999969
C    10.93999958  33.34999847  48.57999802
C     9.92999935  33.65999985  49.47000122
C     8.57999992  33.29000092  49.20999908
C     7.53000021  33.44000244  50.15999603
C     6.25999975  32.93000031  49.95999908
C     5.96000004  32.21999741  48.76999664
C     6.96000004  32.04000092  47.83000183
C     8.25000000  32.62000275  47.98999786
C    12.36999989  33.59999847  48.68000031
C    13.05999947  33.11999893  47.54000092
C    14.44000053  33.00000000  47.55000305
C     4.55000019  31.81999969  48.41999817
H     4.11702204  32.48721313  47.67470932
H     9.11000061  31.81999969  46.11999893
H    10.15999985  34.20000076  50.38999939
H     7.69999981  33.81000137  51.16000366
H     5.52999973  33.31000137  50.65999985
H     6.78999996  31.50000000  46.90999985
H    14.96999931  32.56999969  46.70000076
H     4.07000017  31.97999954  49.38999939
H     4.50000000  30.79999924  48.02000046
