96

S    15.24000072  33.95000076  57.28000259
C    17.97000122  34.01000214  56.63999939
C    16.68000031  33.67000198  56.29000092
C    16.36000061  33.13000107  55.00999832
C    17.30999947  33.13999939  54.00000000
C    18.63000107  33.51000214  54.34999847
C    19.76000023  33.32999802  53.50000000
C    21.04999924  33.52999878  53.89999771
C    21.38999939  34.13000107  55.13999939
C    20.35000038  34.18999863  56.04000092
C    19.01000023  33.91999817  55.66999817
C    14.92000008  32.97999954  54.79999924
C    14.19999981  33.43000031  55.93999863
C    12.81999969  33.56999969  56.00000000
C    22.82999992  34.36000061  55.56999969
H    23.22987747  33.74590302  56.37689590
H    18.15000153  34.27000046  57.68000031
H    17.07999992  32.88999939  52.97000122
H    19.72999954  32.80999756  52.54000092
H    21.83000183  33.13000107  53.26000214
H    20.61000061  34.43000031  57.06999969
H    12.43000031  33.84999847  56.97000122
H    23.51000023  34.27999878  54.71000290
H    22.96999931  35.42000198  55.84000015
S    11.69000053  32.22999954  52.44999695
C     9.02000046  32.21999741  53.15999985
C    10.29000092  32.65999985  53.43999863
C    10.62999916  33.25000000  54.71000290
C     9.63000011  33.50000000  55.63000107
C     8.30000019  33.11999893  55.31999969
C     7.30000019  33.38000107  56.30000305
C     6.02999973  32.90999985  56.09000397
C     5.69999981  32.18000031  54.92000198
C     6.63999987  31.98999786  53.93000031
C     7.99000025  32.40000153  54.10999680
C    12.07999992  33.22999954  54.86000061
C    12.79000092  32.81999969  53.70999908
C    14.15999985  32.56000137  53.70999908
C     4.28999996  31.73000145  54.61999893
H     3.86986136  32.31392288  53.80108643
H     8.78000069  31.68000031  52.23999786
H     9.75000000  33.79000092  56.65999985
H     7.63000011  33.70999908  57.29000092
H     5.28999996  32.95000076  56.88000107
H     6.42000008  31.42000008  53.02999878
H    14.65999985  32.06999969  52.88000107
H     3.61999989  31.88999939  55.47999954
H     4.32999992  30.71000099  54.22000122
S    15.48999977  34.06999969  51.38000107
C    18.20999908  34.29000092  50.79000092
C    16.93000031  33.98999786  50.35999680
C    16.57999992  33.54999924  49.03999710
C    17.64999962  33.27000046  48.20999908
C    18.96000099  33.69999695  48.53000259
C    20.03000069  33.51000214  47.62000275
C    21.27000046  34.00000000  47.97000122
C    21.59000015  34.50999832  49.26000214
C    20.56999969  34.64999771  50.17000198
C    19.25000000  34.26000214  49.82999802
C    15.14000034  33.51000214  48.81999969
C    14.40999985  33.77999878  50.00000000
C    13.02999973  33.97000122  49.95999908
C    22.98000145  35.02999878  49.52999878
H    23.40684128  34.50356293  50.38368225
H    18.39999962  34.61000061  51.81000137
H    17.61999893  32.79999924  47.22999954
H    19.75000000  33.13000107  46.63999939
H    22.06999969  33.90999985  47.25000000
H    20.90999985  34.94999695  51.17000198
H    12.56999969  34.24000168  50.90000153
H    23.64000130  34.97999954  48.66000366
H    22.70000076  36.06999969  49.75999832
S    11.96000004  32.49000168  46.43000031
C     9.28999996  32.33000183  47.12999725
C    10.54999924  32.79000092  47.45999908
C    10.92000008  33.43000031  48.68999863
C     9.92000008  33.59000015  49.61999893
C     8.56999969  33.25000000  49.34000015
C     7.57000017  33.54999924  50.31000137
C     6.30999994  33.09000015  50.04000092
C     5.98999977  32.40999985  48.82999802
C     6.94000006  32.19000244  47.84999847
C     8.28999996  32.57999802  48.09999847
C    12.36999989  33.55999756  48.80000305
C    13.09000015  33.09999847  47.67000198
C    14.47999954  33.11999893  47.64999771
C     4.55999994  32.04000092  48.53000259
H     4.19613838  32.51087952  47.61677933
H     9.10000038  31.87999916  46.16000366
H    10.05000019  33.94000244  50.63999939
H     7.85000038  34.09000015  51.22000122
H     5.47999954  33.34999847  50.68000031
H     6.60000038  31.65999985  46.97000122
H    14.98000050  32.70000076  46.77999878
H     3.88000011  32.29999924  49.36000061
H     4.48000002  30.95000076  48.41999817
