96

S    15.03000069  34.08000183  57.02000046
C    17.76000023  34.06999969  56.49000168
C    16.50000000  33.61999893  56.14999771
C    16.14999962  33.00000000  54.89999771
C    17.19000053  32.85000229  54.00000000
C    18.48999977  33.34999847  54.25000000
C    19.48999977  33.31000137  53.23999786
C    20.76999855  33.68999863  53.55999756
C    21.11999893  34.15999985  54.86000061
C    20.15000153  34.26000214  55.81999969
C    18.78999901  33.97000122  55.52000046
C    14.70999908  32.95999908  54.72999954
C    13.90999985  33.45999908  55.79000092
C    12.51999950  33.54000092  55.80999756
C    22.53999901  34.59000015  55.13000107
H    23.09899139  33.93902206  55.80220413
H    17.95999908  34.54999924  57.44999695
H    17.14999962  32.30999756  53.06000137
H    19.26000023  32.75000000  52.34000397
H    21.55999947  33.63999939  52.81999969
H    20.32999992  34.59999847  56.84000015
H    12.05999947  33.79000092  56.76000214
H    22.96999931  34.59999847  54.12000275
H    22.57999802  35.59999847  55.56000137
S    11.49000072  32.13000107  52.32999802
C     8.78000069  31.90999985  52.90000153
C    10.01999950  32.34999847  53.29999924
C    10.31000042  32.95000076  54.55999756
C     9.26999950  33.15000153  55.44000244
C     7.96999979  32.72000122  55.06000137
C     6.86999989  32.86999893  55.94999695
C     5.61999989  32.43000031  55.59000015
C     5.38000011  31.73000145  54.38000107
C     6.39999962  31.63999939  53.44999695
C     7.69999981  32.11000061  53.79000092
C    11.76000023  33.04000092  54.75000000
C    12.55000019  32.55000305  53.68000031
C    13.94000053  32.47999954  53.66000366
C     3.98000002  31.30000114  54.00000000
H     3.54553509  31.95525742  53.24502945
H     8.78999996  31.21999931  52.04999924
H     9.52999973  33.25999832  56.49000168
H     6.98999977  33.46999741  56.84999847
H     4.76999998  32.70000076  56.20999908
H     6.25999975  31.11000061  52.51999664
H    14.42999935  32.04999924  52.78999710
H     3.35000014  31.37000084  54.89999771
H     4.00000000  30.27000046  53.62999725
S    15.36000061  34.22000122  51.33999634
C    18.01000023  34.33000183  50.54999924
C    16.75000000  33.84999847  50.31000137
C    16.32999992  33.27999878  49.06000137
C    17.28000069  33.09999847  48.06999969
C    18.57999992  33.61000061  48.29000092
C    19.57999992  33.34000015  47.30999756
C    20.85000038  33.80000305  47.52999878
C    21.21999931  34.59000015  48.64999771
C    20.29999924  34.75000000  49.66999817
C    18.98999977  34.22999954  49.52000046
C    14.88000011  33.16999817  49.01000214
C    14.19000053  33.74000168  50.10000229
C    12.81000042  33.88999939  50.15999603
C    22.65999985  34.99000168  48.89999771
H    23.17815399  34.29439926  49.56011200
H    18.23999977  34.94999695  51.42000198
H    17.10000038  32.40999985  47.23999786
H    19.18000031  32.97999954  46.37000275
H    21.61999893  33.59000015  46.79000092
H    20.61000061  35.13000107  50.63999939
H    12.42000008  34.29999924  51.07999802
H    23.02000046  35.09999847  47.88000107
H    22.65999985  35.95999908  49.40999985
S    11.73999977  32.52000046  46.51000214
C     9.10000038  32.30999756  47.09000015
C    10.32999992  32.70999908  47.56000137
C    10.67000008  33.11000061  48.88999939
C     9.63000011  33.15999985  49.79999924
C     8.31999969  32.79000092  49.38999939
C     7.23000002  33.11000061  50.25000000
C     5.95000029  32.97999954  49.78000259
C     5.64000034  32.42000198  48.50999832
C     6.69000053  32.13000107  47.67000198
C     8.03999996  32.40999985  48.02999878
C    12.07999992  33.41999817  49.05000305
C    12.76000023  33.02000046  47.88000107
C    14.14999962  32.99000168  47.83000183
C     4.21999979  32.20000076  48.04000092
H     3.93488669  32.68469238  47.10625458
H     8.88000011  31.90000153  46.11000061
H     9.85000038  33.67000198  50.73999786
H     7.39000034  33.47999954  51.25999832
H     5.09000015  33.34000015  50.34000015
H     6.47000027  31.84000015  46.63999939
H    14.72000027  32.68000031  46.95999908
H     3.63000011  32.78000259  48.75999832
H     3.79999995  31.18999863  48.09999847
