96

S    15.00000000  33.90000153  57.04999924
C    17.71000099  34.04000092  56.39999771
C    16.44000053  33.65999985  56.04999924
C    16.10000038  33.04999924  54.79999924
C    17.13999939  32.75000000  53.93000031
C    18.46999931  33.13000107  54.20999908
C    19.48999977  33.06000137  53.22000122
C    20.75000000  33.54000092  53.47000122
C    21.02999878  34.18999863  54.69999695
C    20.06999969  34.25000000  55.70000076
C    18.75000000  33.77999878  55.47000122
C    14.68000031  33.09999847  54.50000000
C    13.96999931  33.55999756  55.63999939
C    12.58999920  33.68000031  55.61999893
C    22.40999985  34.69000244  55.05000305
H    22.90694618  34.08656693  55.80961609
H    17.92000008  34.50999832  57.36000061
H    16.90999985  32.38999939  52.93000031
H    19.25000000  32.69000244  52.22999954
H    21.48999977  33.47999954  52.67000198
H    20.30999947  34.73999786  56.63999939
H    12.03999996  34.20000076  56.39999771
H    22.96999931  34.63000107  54.09999847
H    22.50999832  35.75000000  55.30000305
S    11.42000008  32.66999817  52.01000214
C     8.71999931  32.57999802  52.72999573
C     9.98999977  33.01000214  53.01000214
C    10.38000011  33.52000046  54.29999924
C     9.39999962  33.62999725  55.27000046
C     8.09000015  33.18000031  54.99000168
C     7.07999992  33.13999939  56.00000000
C     5.78000021  32.75000000  55.79000092
C     5.44000053  32.27000046  54.48999786
C     6.38000011  32.20000076  53.48999786
C     7.69000006  32.70999908  53.68999863
C    11.82999992  33.52000046  54.45999908
C    12.53999901  33.02999878  53.34000015
C    13.90999985  32.77000046  53.37999725
C     3.98999977  31.90999985  54.26000214
H     3.67772770  32.44937897  53.36576462
H     8.48999977  32.02999878  51.81000137
H     9.68999958  33.93000031  56.26999664
H     7.36000013  33.40999985  57.02000046
H     4.96000004  32.97000122  56.45999908
H     6.11999989  31.71999931  52.55000305
H    14.39000034  32.33000183  52.50999832
H     3.38999987  32.27000046  55.10000229
H     3.84999990  30.82999992  54.15000153
S    15.57000065  34.48999786  51.14999771
C    18.32999992  34.56000137  50.52999878
C    17.05000114  34.15999985  50.22999573
C    16.63999939  33.46999741  49.03999710
C    17.64999962  33.22999954  48.11999893
C    19.00000000  33.56999969  48.34999847
C    20.02000046  33.34000015  47.38999939
C    21.31000137  33.77999878  47.61000061
C    21.63000107  34.48999786  48.80000305
C    20.68000031  34.63000107  49.78000259
C    19.34000015  34.18999863  49.61000061
C    15.19999981  33.46999741  48.79000092
C    14.45000076  34.04999924  49.84000397
C    13.07000065  34.20000076  49.75999832
C    23.05999947  34.93999863  49.03999710
H    23.61559105  34.35591507  49.77366257
H    18.50000000  35.20000076  51.38999939
H    17.36999893  32.88999939  47.12999725
H    19.73999977  33.08000183  46.37000275
H    22.06999969  33.69999695  46.84999847
H    20.94000053  35.22000122  50.65000153
H    12.48999977  34.63000107  50.58000183
H    23.61000061  34.77000046  48.11000061
H    22.98000145  36.01000214  49.29999924
S    12.05999947  32.65999985  46.26999664
C     9.32999992  32.62000275  46.91999817
C    10.62000084  32.95000076  47.28000259
C    10.95000076  33.69999695  48.44999695
C     9.92999935  34.02000046  49.31999969
C     8.57999992  33.77000046  48.97999573
C     7.49000025  34.18999863  49.79999924
C     6.19000006  34.03000259  49.38999939
C     5.91000032  33.46999741  48.11999893
C     6.93000031  32.90000153  47.38999939
C     8.28999996  33.02999878  47.78999710
C    12.38999939  33.75000000  48.62999725
C    13.15000057  33.22000122  47.55000305
C    14.53999996  33.11999893  47.61000061
C     4.56999969  32.84000015  47.80000305
H     3.95820928  33.43756485  47.12418365
H     9.02000046  32.06999969  46.03000259
H    10.15999985  34.45999908  50.28999710
H     7.55999994  34.64999771  50.79000092
H     5.36999989  34.10000229  50.10000229
H     6.63999987  32.19000244  46.60999680
H    15.11999989  32.73999786  46.77000046
H     4.00000000  32.69000244  48.73000336
H     4.67999983  31.80999947  47.43999863
