96

S    15.38000011  33.79000092  57.34000397
C    18.09999847  33.87000275  56.62000275
C    16.81999969  33.44000244  56.36000061
C    16.52000046  33.02999878  55.01999664
C    17.56999969  32.86000061  54.13999939
C    18.92000008  33.13000107  54.47999954
C    19.90999985  33.06999969  53.46000290
C    21.17000198  33.51000214  53.77999878
C    21.47999954  33.97999954  55.07999802
C    20.55000114  34.04999924  56.07999802
C    19.22999954  33.59000015  55.79999924
C    15.07999992  32.90999985  54.84000397
C    14.34999943  33.22000122  56.02000427
C    12.97000027  33.38000107  56.04999924
C    22.86000061  34.59000015  55.19000244
H    23.47868156  34.09220886  55.93668747
H    18.15000153  34.50000000  57.50999832
H    17.39999962  32.36999893  53.18999863
H    19.65999985  32.72999954  52.45999908
H    21.94999886  33.48999786  53.01000214
H    20.76999855  34.59000015  56.98999786
H    12.48000050  33.69999695  56.95999908
H    23.31000137  34.56000137  54.19000244
H    22.84000015  35.63999939  55.52999878
S    11.90000057  32.30999756  52.34000397
C     9.19999981  32.20999908  53.01000214
C    10.47000027  32.62000275  53.34000015
C    10.80000019  33.06999969  54.65000153
C     9.77999973  33.29000092  55.56000137
C     8.43000031  33.00000000  55.24000168
C     7.30999994  33.22000122  56.07999802
C     6.01000023  33.06000137  55.65000153
C     5.73999977  32.43999863  54.40999985
C     6.80000019  32.20999908  53.55999756
C     8.15999985  32.40000153  53.95999908
C    12.23999977  33.22999954  54.86000061
C    12.93000031  32.77000046  53.70999908
C    14.30999947  32.57999802  53.72000122
C     4.30000019  32.04999924  54.15000153
H     3.80177617  32.64075089  53.38131332
H     9.07999992  31.68999863  52.05999756
H    10.15999985  33.65000153  56.51000214
H     7.36999989  33.46999741  57.14000320
H     5.15999985  33.31000137  56.27999878
H     6.57000017  31.97000122  52.52999878
H    14.85000038  32.31999969  52.81999969
H     3.71000004  32.15999985  55.06000137
H     4.23000002  30.95999908  54.01000214
S    15.97000027  34.22000122  51.14999771
C    18.68999863  34.03000259  50.44000244
C    17.36999893  33.77000046  50.17000198
C    16.95999908  33.27000046  48.88999939
C    17.89999962  33.13999939  47.88999939
C    19.25000000  33.52000046  48.11999893
C    20.17000008  33.68999863  47.04999924
C    21.45999908  34.10000229  47.29999924
C    21.90999985  34.40000153  48.61000061
C    21.04000092  34.27999878  49.65999985
C    19.68000031  33.94000244  49.41999817
C    15.52000046  33.22000122  48.68000031
C    14.88000011  33.70999908  49.85000229
C    13.50999928  33.93000031  49.88999939
C    23.26999855  35.04000092  48.80000305
H    23.83055115  34.51492691  49.57342148
H    18.84000015  34.50000000  51.40999603
H    17.61999893  32.92000198  46.86999893
H    19.89999962  33.45999908  46.02000427
H    22.07999992  34.27999878  46.42000198
H    21.38999939  34.54000092  50.65999985
H    13.07000065  34.20999908  50.84000015
H    23.77000046  35.15999985  47.83000183
H    23.12999916  36.02999878  49.26000214
S    12.30000019  32.88000107  46.19999695
C     9.65999985  32.85000229  46.95999908
C    10.93999958  33.25999832  47.27000427
C    11.31000042  33.59000015  48.61999893
C    10.31999969  33.62999725  49.58000183
C     8.96000004  33.34999847  49.29000092
C     7.96999979  33.40999985  50.31000137
C     6.63999987  33.25000000  50.00999832
C     6.30000019  32.95000076  48.66000366
C     7.25000000  32.80999756  47.68000031
C     8.64000034  32.99000168  47.93000031
C    12.76000023  33.63999939  48.74000168
C    13.40000057  33.22999954  47.55000305
C    14.77000046  32.95999908  47.51999664
C     4.88999987  32.44999695  48.40999985
H     4.30800056  32.98231506  47.65766144
H     9.44000053  32.52000046  45.93999863
H    10.52000046  34.04000092  50.56999969
H     8.27000046  33.54000092  51.35000229
H     5.91000032  33.29999924  50.80999756
H     7.03999996  32.40999985  46.69000244
H    15.26999950  32.78000259  46.58000183
H     4.30000019  32.54000092  49.33000183
H     4.94999981  31.40999985  48.06000137
