96

S    15.67000008  33.45000076  57.09000015
C    18.38999939  33.75000000  56.27999878
C    17.11000061  33.29999924  56.05999756
C    16.72999954  32.95999908  54.72000122
C    17.75000000  32.85000229  53.79000092
C    19.11999893  33.04000092  54.08000183
C    20.20999908  32.90999985  53.16999817
C    21.50000000  33.25000000  53.47000122
C    21.77000046  33.68000031  54.79999924
C    20.79000092  33.95999908  55.72999954
C    19.45999908  33.61999893  55.35999680
C    15.29999924  32.97999954  54.48999786
C    14.59000015  33.18999863  55.70999908
C    13.20000076  33.20000076  55.80999756
C    23.22000122  33.94000244  55.15999603
H    23.60400772  33.34976578  55.99201584
H    18.51000023  34.31999969  57.19999695
H    17.39999962  32.72999954  52.77000046
H    19.97999954  32.66999817  52.12999725
H    22.34999847  33.29999924  52.80000305
H    20.98999977  34.29999924  56.73999786
H    12.74000072  33.31999969  56.79000092
H    23.92000008  33.81999969  54.33000183
H    23.38000107  34.97000122  55.51000214
S    12.05999947  32.21999741  52.16999817
C     9.34000015  31.94000053  52.91999817
C    10.62999916  32.30999756  53.22000122
C    11.00999928  32.72000122  54.54000092
C    10.03000069  32.83000183  55.51000214
C     8.69999981  32.45999908  55.21999741
C     7.65999985  32.70000076  56.17000198
C     6.37000036  32.29000092  55.90999985
C     5.98999977  31.81999969  54.62999725
C     6.96000004  31.73000145  53.66000366
C     8.34000015  31.96000099  53.92000198
C    12.44999981  32.93999863  54.66999817
C    13.15000057  32.80999756  53.43999863
C    14.52999973  32.68000031  53.36000061
C     4.51000023  31.65999985  54.36999893
H     4.10545683  32.27745819  53.56800842
H     9.04999924  31.77999878  51.88999939
H    10.36000061  33.23999786  56.45999908
H     7.92000008  33.18999863  57.09999847
H     5.59999990  32.52999878  56.63999939
H     6.71999979  31.51000023  52.62000275
H    15.03999901  32.37999725  52.44999695
H     4.01999998  31.80999947  55.34000015
H     4.41000032  30.62999916  54.00000000
S    12.28000069  30.19000053  49.48999786
C     9.71000004  29.23999977  50.06000137
C    11.02000046  29.38999939  50.45000076
C    11.49000072  28.84000015  51.69000244
C    10.51000023  28.25000000  52.47000122
C     9.11999989  28.39999962  52.31999969
C     8.09000015  27.93000031  53.18999863
C     6.76999998  28.13999939  52.88999939
C     6.38999987  28.75999832  51.66999817
C     7.35000038  29.11000061  50.75000000
C     8.73000050  28.92000008  51.03000259
C    12.93000031  28.97999954  51.81000137
C    13.45999908  29.75000000  50.73999786
C    14.73999977  30.29000092  50.72999954
C     4.92999983  29.04000092  51.37000275
H     4.48629713  28.57482719  50.48974991
H     9.43000031  29.40999985  49.02000046
H    10.88000107  27.72999954  53.36000061
H     8.31999969  27.39000130  54.10999680
H     5.97000027  27.79000092  53.53000259
H     7.09000015  29.63000107  49.82999802
H    15.05000019  30.90999985  49.89999771
H     4.44000006  28.64000130  52.27000427
H     4.79999971  30.13000107  51.37000275
S    16.31000137  28.59999847  54.02000046
C    18.89999962  29.26000214  53.27999878
C    17.54999924  29.40999985  53.04999924
C    17.02999878  29.94999886  51.84000015
C    17.86000061  30.42000008  50.84000015
C    19.26000023  30.31999969  51.03000259
C    20.17999840  30.89999962  50.11000061
C    21.54000092  30.81000137  50.34000015
C    22.04999924  30.26000023  51.53999710
C    21.17000198  29.64999962  52.41000366
C    19.76000023  29.73999977  52.25000000
C    15.57999992  29.86000061  51.76000214
C    15.06999969  29.13000107  52.87000275
C    13.76000023  28.65999985  52.88999939
C    23.47999954  30.45999908  51.97999954
H    23.64339256  30.01244545  52.96035767
H    19.37000084  28.77000046  54.13000107
H    17.54999924  30.81000137  49.87999725
H    19.81999969  31.31999969  49.18000031
H    22.25000000  31.18999863  49.61999893
H    21.56999969  29.28999901  53.34999847
H    13.40999985  28.03999901  53.72000122
H    23.75999832  31.51000023  51.90999985
H    24.14999962  30.03999901  51.22000122
