96

S    15.31000042  33.79000092  57.08000183
C    18.04000092  33.72999954  56.32999802
C    16.72999954  33.38999939  56.10000229
C    16.36000061  32.79000092  54.86000061
C    17.35000038  32.63999939  53.89999771
C    18.67000008  33.11000061  54.05000305
C    19.73999977  32.79000092  53.15999985
C    21.02000046  33.20000076  53.41999817
C    21.38999939  33.75000000  54.68000031
C    20.38999939  34.05999756  55.56999969
C    19.04000092  33.68999863  55.31999969
C    14.92000008  32.70999908  54.68000031
C    14.22000027  33.22999954  55.79999924
C    12.82999992  33.29999924  55.81999969
C    22.84000015  33.90000153  55.06999969
H    23.21721840  33.20961761  55.82443619
H    18.30000114  34.04000092  57.34000397
H    17.05000114  32.11000061  53.00000000
H    19.37999916  32.29999924  52.25000000
H    21.78999901  33.08000183  52.67000198
H    20.62999916  34.40999985  56.56999969
H    12.22000027  33.70999908  56.62000275
H    23.42000008  33.87000275  54.13999939
H    22.95999908  34.93999863  55.41999817
S    11.75000000  31.80999947  52.23999786
C     9.04999924  31.97000122  52.77000046
C    10.32999992  32.22999954  53.20999908
C    10.70000076  32.66999817  54.52000046
C     9.68999958  32.93999863  55.41999817
C     8.36000061  32.59999847  55.06000137
C     7.27999973  32.76000214  55.97000122
C     5.98000002  32.38999939  55.70999908
C     5.75999975  31.83000183  54.41999817
C     6.72999954  31.59000015  53.47999954
C     8.03999996  32.06999969  53.75999832
C    12.13999939  32.72000122  54.75000000
C    12.81000042  32.34000015  53.55999756
C    14.19999981  32.27000046  53.55999756
C     4.35999966  31.30000114  54.20000076
H     3.87562728  31.68464851  53.30248642
H     8.85000038  31.47000122  51.81999969
H     9.85999966  33.09000015  56.47999573
H     7.53999996  33.22000122  56.91999817
H     5.28999996  32.40000153  56.55000305
H     6.44000006  31.01000023  52.61000061
H    14.78999996  31.94999886  52.70999908
H     3.68999982  31.44000053  55.05000305
H     4.51000023  30.20999908  54.09000015
S    12.17000008  29.93000031  49.48999786
C     9.55999947  29.18999863  50.06999969
C    10.88999939  29.13999939  50.43000031
C    11.46999931  28.55999947  51.59999847
C    10.59000015  27.88999939  52.43000031
C     9.19999981  27.88000107  52.14000320
C     8.27999973  27.39999962  53.11999893
C     6.91999960  27.56000137  53.01000214
C     6.39999962  28.12999916  51.81999969
C     7.26000023  28.72999954  50.93000031
C     8.67000008  28.64000130  51.04000092
C    12.90999985  28.64000130  51.75000000
C    13.38000107  29.47999954  50.70000076
C    14.68000031  29.96000099  50.77000046
C     4.97000027  27.80999947  51.42000198
H     4.54902554  28.38081360  50.59232330
H     9.27999973  29.87999916  49.27999878
H    10.98999977  27.29999924  53.25000000
H     8.53999996  26.83000183  54.00000000
H     6.28999996  27.18000031  53.81000137
H     6.89000034  29.18999863  50.00999832
H    15.05000019  30.59999847  49.97000122
H     4.84000015  26.73999977  51.24000168
H     4.39000034  28.12999916  52.29999924
S    16.29999924  28.26999855  53.97999573
C    18.93000031  28.84000015  53.20999908
C    17.59000015  28.90000153  52.93000031
C    17.01000023  29.57999992  51.81000137
C    17.82999992  30.26000023  50.93000031
C    19.22999954  30.20000076  51.18000031
C    20.10999870  30.86999893  50.28999710
C    21.47999954  30.75000000  50.43000031
C    22.00000000  30.02000046  51.52999878
C    21.19999886  29.34999847  52.43000031
C    19.78999901  29.43000031  52.25000000
C    15.55999947  29.51999855  51.77000046
C    15.03999901  28.68999863  52.80000305
C    13.73999977  28.21000099  52.80000305
C    23.43000031  30.29999924  51.91999817
H    23.79332542  29.78706932  52.81050110
H    19.29999924  28.36000061  54.12000275
H    17.36999893  30.94000053  50.21999741
H    19.67000008  31.40999985  49.45000076
H    22.18000031  31.40999985  49.92000198
H    21.63999939  28.75000000  53.22999954
H    13.28999996  27.77000046  53.68000031
H    23.47999954  31.37000084  52.15999985
H    24.11000061  30.23999977  51.05999756
