96

S    15.19000053  34.13000107  56.86999893
C    17.93000031  34.06999969  56.22000122
C    16.62999916  33.75000000  55.90000153
C    16.36000061  33.20000076  54.61000061
C    17.35999870  33.06999969  53.66000366
C    18.70000076  33.34000015  53.99000168
C    19.82999992  33.32999802  53.11999893
C    21.11999893  33.68999863  53.37999725
C    21.32999802  34.22999954  54.68000031
C    20.30999947  34.29999924  55.61000061
C    18.98999977  33.88000107  55.30000305
C    14.92000008  33.04000092  54.45000076
C    14.17000008  33.44000244  55.59000015
C    12.79000092  33.61000061  55.61000061
C    22.70000076  34.63000107  55.17000198
H    23.18773842  33.95140839  55.86980438
H    18.26000023  34.59000015  57.11999893
H    17.18000031  32.68000031  52.65999603
H    19.57999992  32.92000198  52.12999725
H    21.91999817  33.54999924  52.64999771
H    20.52999878  34.79000092  56.55000305
H    12.23000050  33.87000275  56.50000000
H    23.32999992  34.59999847  54.27999878
H    22.75000000  35.66999817  55.50000000
S    11.64000034  32.47000122  52.04999924
C     8.86999989  32.45999908  52.64999771
C    10.17000008  32.70999908  53.02000046
C    10.59000015  33.06000137  54.34000015
C     9.61000061  33.29000092  55.28999710
C     8.26000023  33.02000046  54.97000122
C     7.21000004  33.02999878  55.93000031
C     5.91000032  32.61000061  55.72000122
C     5.63000011  32.09999847  54.43000031
C     6.56000042  32.09999847  53.40999985
C     7.90000010  32.50999832  53.68000031
C    12.02000046  33.25999832  54.50000000
C    12.76999950  32.88000107  53.34999847
C    14.15999985  32.80999756  53.29000092
C     4.23999977  31.60000038  54.10999680
H     3.74305391  32.20343399  53.35038376
H     8.61999989  32.20000076  51.62000275
H     9.89999962  33.59000015  56.29000092
H     7.50000000  33.31999969  56.93999863
H     5.23999977  32.66999817  56.58000183
H     6.35999966  31.70000076  52.42000198
H    14.73000050  32.56000137  52.41000366
H     3.56999993  31.59000015  54.97000122
H     4.21999979  30.56999969  53.74000168
S    15.75000000  34.45000076  51.05999756
C    18.43000031  34.47000122  50.31999969
C    17.13000107  34.13999939  49.99000168
C    16.75000000  33.61000061  48.72000122
C    17.79999924  33.36999893  47.85999680
C    19.15999985  33.67000198  48.13999939
C    20.29999924  33.46999741  47.30999756
C    21.57999992  33.86000061  47.63000107
C    21.87999916  34.31999969  48.93000031
C    20.82999992  34.54000092  49.79999924
C    19.50000000  34.20999908  49.41999817
C    15.29999924  33.54999924  48.64999771
C    14.60000038  34.08000183  49.75999832
C    13.22000027  34.18000031  49.82999802
C    23.23999786  34.90000153  49.22999954
H    23.81585312  34.22461700  49.86272812
H    18.61999893  34.86999893  51.31000137
H    17.64999962  32.88000107  46.90000153
H    20.07999802  33.22999954  46.26999664
H    22.29000092  33.84999847  46.79999924
H    20.97999954  35.13999939  50.70000076
H    12.65999985  34.59999847  50.65999985
H    23.68000031  35.23999786  48.29000092
H    23.25000000  35.77000046  49.91000366
S    12.07999992  32.50000000  46.36000061
C     9.36999989  32.54000092  46.97000122
C    10.65000057  32.92000198  47.31999969
C    11.05999947  33.59999847  48.50999832
C    10.03000069  33.97000122  49.34000015
C     8.67999935  33.62999725  49.09000015
C     7.62000036  33.95000076  49.99000168
C     6.34999990  33.48999786  49.75999832
C     6.01000023  32.81999969  48.54999924
C     7.00000000  32.54000092  47.63999939
C     8.36999989  32.81999969  47.94000244
C    12.50000000  33.67000198  48.74000168
C    13.15999985  33.18000031  47.58999634
C    14.55000019  33.04999924  47.56999969
C     4.61999989  32.29000092  48.29000092
H     4.17364788  32.82845688  47.45397568
H     9.17000008  32.13000107  45.98999786
H    10.31999969  34.50000000  50.25000000
H     7.92999983  34.47999954  50.87999725
H     5.65000010  33.47999954  50.59000015
H     6.81999969  32.06999969  46.68000031
H    15.01000023  32.63999939  46.68000031
H     4.05999994  32.47000122  49.22000122
H     4.65999985  31.21000099  48.11000061
