96

S    15.31000042  34.03000259  57.35000229
C    18.00000000  34.15999985  56.62000275
C    16.72000122  33.79000092  56.29000092
C    16.34000015  33.27000046  55.00999832
C    17.27000046  33.16999817  53.99000168
C    18.56999969  33.65000153  54.27000046
C    19.65999985  33.38999939  53.37999725
C    20.98999977  33.51000214  53.68999863
C    21.28999901  34.20999908  54.88999939
C    20.31999969  34.43000031  55.84000015
C    18.96000099  34.11000061  55.58000183
C    14.91000080  33.00000000  54.91000366
C    14.23999977  33.59000015  56.00999832
C    12.84999943  33.65999985  56.05999756
C    22.70999908  34.50000000  55.30000305
H    23.17846680  33.78310013  55.97431183
H    18.30000114  34.36999893  57.64999771
H    16.97999954  32.72999954  53.04000092
H    19.32999992  32.84000015  52.50999832
H    21.71999931  33.13999939  52.97999954
H    20.62000084  34.68000031  56.84999847
H    12.35999966  33.97999954  56.97000122
H    23.23999786  34.70999908  54.36000061
H    22.67999840  35.47999954  55.77999878
S    11.73999977  32.13000107  52.51999664
C     9.02000046  32.14999771  53.27999878
C    10.32999992  32.44999695  53.54999924
C    10.69000053  33.08000183  54.79000092
C     9.68000031  33.22999954  55.72000122
C     8.30999947  32.95000076  55.47000122
C     7.30000019  33.25000000  56.42000198
C     6.00000000  32.88999939  56.13999939
C     5.65999985  32.34999847  54.86999893
C     6.58999968  32.15999985  53.88000107
C     7.96000004  32.43000031  54.16999817
C    12.13000107  33.20999908  54.93999863
C    12.81000042  32.63999939  53.83999634
C    14.19999981  32.54000092  53.79000092
C     4.23999977  31.83000183  54.75000000
H     3.70390725  32.43757248  54.02091599
H     8.69999981  31.77000046  52.30999756
H     9.82999992  33.58000183  56.72999954
H     7.64999962  33.59999847  57.38999939
H     5.23999977  33.09000015  56.88999939
H     6.34999990  31.64999962  52.95000076
H    14.67000008  32.47999954  52.81999969
H     3.71000004  31.97000122  55.70000076
H     4.30000019  30.79999924  54.38999939
S    15.47000027  34.38999939  51.25999832
C    18.15999985  34.47000122  50.63000107
C    16.90000153  34.03000259  50.27999878
C    16.48999977  33.46999741  49.02999878
C    17.50000000  33.31999969  48.09999847
C    18.81000137  33.77000046  48.37999725
C    19.89999962  33.61000061  47.47000122
C    21.19999886  34.00000000  47.70000076
C    21.47000122  34.68000031  48.90999603
C    20.45000076  34.95999908  49.79999924
C    19.17000008  34.36000061  49.64000320
C    15.05000019  33.45999908  48.79000092
C    14.37999916  33.98999786  49.92000198
C    12.98999977  33.97999954  50.02999878
C    22.85000038  35.26000214  49.13000107
H    23.38955116  34.68495560  49.88253403
H    18.42000008  34.93000031  51.56999969
H    17.28000069  33.04999924  47.06999969
H    19.61000061  33.38000107  46.45000076
H    21.97000122  33.74000168  46.97999954
H    20.72000122  35.52000046  50.70000076
H    12.53999901  34.01000214  51.02000427
H    23.45999908  35.22000122  48.22000122
H    22.69000053  36.30000305  49.45000076
S    11.80999947  32.79999924  46.39999771
C     9.15999985  32.68000031  47.18000031
C    10.44999981  33.02000046  47.51999664
C    10.77999973  33.38999939  48.86000061
C     9.77999973  33.51000214  49.80999756
C     8.42000008  33.31999969  49.47000122
C     7.35000038  33.43000031  50.38999939
C     6.05000019  33.04000092  50.13000107
C     5.78999996  32.57999802  48.81000137
C     6.78999996  32.50000000  47.85999680
C     8.13000011  32.88999939  48.13000107
C    12.22000027  33.52000046  48.95999908
C    12.89000034  33.13999939  47.77000046
C    14.27999973  33.01000214  47.71999741
C     4.40000010  32.14999771  48.43000031
H     3.94498444  32.83963013  47.71903992
H     9.01000023  32.18000031  46.22000122
H    10.05000019  33.58000183  50.86000061
H     7.68000031  33.77000046  51.37000275
H     5.32000017  32.90999985  50.90999985
H     6.57000017  32.09999847  46.86999893
H    14.82999992  32.63000107  46.86000061
H     3.75000000  32.14999771  49.31999969
H     4.42000008  31.11000061  48.08000183
