96

S    15.01000023  34.06999969  56.90999985
C    17.72999954  34.25000000  56.16000366
C    16.44000053  33.84000015  55.89000320
C    16.00000000  33.36000061  54.61000061
C    17.02999878  33.09999847  53.72000122
C    18.38000107  33.44000244  53.95000076
C    19.43000031  33.20999908  53.01000214
C    20.72999954  33.54999924  53.30999756
C    21.15999985  33.95999908  54.59999847
C    20.13999939  34.20000076  55.50000000
C    18.76000023  33.95000076  55.24000168
C    14.55999947  33.29999924  54.41999817
C    13.89000034  33.81999969  55.56000137
C    12.50000000  33.84000015  55.59999847
C    22.60000038  34.33000183  54.86000061
H    23.00593948  33.78874588  55.71461105
H    17.97999954  34.61000061  57.15999985
H    16.65999985  32.78000259  52.75000000
H    19.09000015  32.97000122  52.01000214
H    21.45999908  33.51000214  52.50999832
H    20.38999939  34.63999939  56.45000076
H    12.00000000  33.91999817  56.56000137
H    23.16999817  34.11000061  53.94000244
H    22.70999908  35.38999939  55.13000107
S    11.38000011  32.22999954  52.15000153
C     8.64000034  32.09000015  52.91999817
C     9.94000053  32.47999954  53.15000153
C    10.31999969  33.13999939  54.36000061
C     9.32999992  33.45999908  55.27000046
C     7.99000025  33.04999924  55.06000137
C     6.94000006  33.31000137  55.98999786
C     5.65999985  32.84000015  55.79999924
C     5.29999971  32.23999786  54.56999969
C     6.25999975  31.96000099  53.61999893
C     7.60999966  32.34999847  53.86000061
C    11.75000000  33.38999939  54.52000046
C    12.43999958  33.04000092  53.33000183
C    13.82999992  33.00000000  53.27000046
C     3.88000011  31.98999786  54.13000107
H     3.51742506  32.66538239  53.35508728
H     8.43000031  31.59000015  51.97999954
H     9.59000015  33.91999817  56.22000122
H     7.23999977  33.82999802  56.90000153
H     4.98000002  33.02000046  56.63000107
H     6.06999969  31.64999962  52.60000229
H    14.19000053  32.65999985  52.29999924
H     3.17000008  32.09999847  54.95999908
H     3.81000018  30.92000008  53.86000061
S    15.67999935  34.75000000  51.02000427
C    18.39999962  34.84000015  50.26000214
C    17.10000038  34.43999863  50.00999832
C    16.69999886  33.68000031  48.86000061
C    17.73999977  33.27000046  48.06000137
C    19.10000038  33.59999847  48.27000046
C    20.17000008  33.34999847  47.36999893
C    21.48999977  33.61999893  47.63999939
C    21.78999901  34.41999817  48.77999878
C    20.78000069  34.86999893  49.59999847
C    19.45000076  34.38999939  49.41999817
C    15.26000023  33.61000061  48.68000031
C    14.55999947  34.11999893  49.79999924
C    13.17000008  34.09000015  49.92000198
C    23.25000000  34.61000061  49.13999939
H    23.62818909  34.19613647  50.07476807
H    18.61999893  35.47000122  51.11999893
H    17.51000023  32.79999924  47.09999847
H    19.86999893  32.93000031  46.40999603
H    22.19000053  33.32999802  46.86999893
H    21.00000000  35.49000168  50.45999908
H    12.72999954  34.31000137  50.89000320
H    23.84000015  34.20999908  48.30999756
H    23.45000076  35.68999863  49.15999985
S    12.02999973  32.76000214  46.39999771
C     9.39000034  32.72999954  47.04999924
C    10.62999916  33.20000076  47.39999771
C    10.95999908  33.62999725  48.72000122
C     9.94999981  33.80000305  49.65000153
C     8.65999985  33.31000137  49.31999969
C     7.55000019  33.39999771  50.20999908
C     6.28999996  32.97999954  49.86000061
C     6.05999994  32.31999969  48.62999725
C     7.07999992  32.21999741  47.70999908
C     8.34999943  32.79999924  48.01000214
C    12.41000080  33.67000198  48.81999969
C    13.14000034  33.11999893  47.74000168
C    14.52999973  33.02000046  47.63999939
C     4.65999985  31.83000183  48.31999969
H     4.16121054  32.40004730  47.53619003
H     9.22999954  32.14999771  46.13999939
H    10.13000011  34.27000046  50.61000061
H     7.67000008  33.94000244  51.14999771
H     5.42999983  33.29999924  50.45000076
H     6.96000004  31.87000084  46.68000031
H    14.86999989  32.69000244  46.65999985
H     4.01999998  31.84999847  49.20999908
H     4.80999994  30.76999855  48.08000183
