96

S    15.29000092  33.80000305  57.15999985
C    17.98999977  33.86000061  56.40999603
C    16.70999908  33.41999817  56.17000198
C    16.31999969  32.95000076  54.86999893
C    17.27000046  32.88000107  53.86000061
C    18.59000015  33.36000061  54.06000137
C    19.62000084  33.23999786  53.09000015
C    20.89999962  33.67000198  53.31999969
C    21.25000000  34.20000076  54.59000015
C    20.29999924  34.17000198  55.59000015
C    18.93000031  33.90999985  55.34000015
C    14.88999939  33.01000214  54.61999893
C    14.22999954  33.54999924  55.76000214
C    12.84999943  33.72000122  55.75000000
C    22.67999840  34.48999786  54.99000168
H    23.04951096  33.84335327  55.78587341
H    18.23999977  34.40999985  57.31999969
H    16.94000053  32.43999863  52.93000031
H    19.31999969  32.90999985  52.09000015
H    21.60000038  33.32999802  52.56999969
H    20.51000214  34.36000061  56.63999939
H    12.30000019  34.04000092  56.62000275
H    23.38999939  34.36999893  54.16999817
H    22.70000076  35.54000092  55.31999969
S    11.59000015  32.25000000  52.23999786
C     8.98999977  32.18000031  53.09000015
C    10.26999950  32.63000107  53.34999847
C    10.64000034  33.15999985  54.62999725
C     9.68999958  33.25000000  55.63999939
C     8.36000061  32.86999893  55.31999969
C     7.30999994  32.95999908  56.26999664
C     6.01999998  32.59999847  55.93999863
C     5.59000015  32.11999893  54.66999817
C     6.60000038  32.02000046  53.74000168
C     7.95000029  32.34000015  54.03999710
C    12.07999992  33.32999802  54.65000153
C    12.71999931  32.84000015  53.47999954
C    14.09000015  32.63999939  53.53000259
C     4.13000011  31.78999901  54.45000076
H     3.64505863  32.42470169  53.70832443
H     8.63000011  31.93000031  52.09999847
H     9.98000050  33.59999847  56.62000275
H     7.57999992  33.48999786  57.18000031
H     5.21000004  32.84000015  56.60999680
H     6.38999987  31.64999962  52.74000168
H    14.48999977  32.14999771  52.63999939
H     3.61000013  31.83000183  55.41999817
H     4.03999996  30.78000069  54.03999710
S    15.54999924  34.18000031  51.11000061
C    18.20000076  34.22999954  50.31999969
C    16.95999908  33.65999985  50.15999603
C    16.59000015  33.06999969  48.90999603
C    17.59000015  32.80999756  47.98999786
C    18.90999985  33.27000046  48.23999786
C    20.00000000  33.06999969  47.35000229
C    21.31000137  33.41999817  47.60000229
C    21.64999962  33.97999954  48.85000229
C    20.65000153  34.22999954  49.75999832
C    19.29000092  33.95000076  49.45000076
C    15.14999962  33.09000015  48.68999863
C    14.48999977  33.74000168  49.75999832
C    13.12000084  34.00000000  49.82999802
C    23.09000015  34.34000015  49.10999680
H    23.53034782  33.96357727  50.03330612
H    18.36000061  34.72999954  51.26999664
H    17.28000069  32.27000046  47.09999847
H    19.57999992  32.73999786  46.39999771
H    22.07999992  33.22000122  46.86000061
H    20.79000092  34.63000107  50.77000046
H    12.74000072  34.45000076  50.73999786
H    23.71999931  34.01000214  48.27999878
H    23.15000153  35.43999863  49.16999817
S    11.92000008  32.40999985  46.39999771
C     9.22999954  32.49000168  47.09000015
C    10.52999973  32.85000229  47.41000366
C    10.90000057  33.43000031  48.66000366
C     9.85999966  33.74000168  49.52999878
C     8.51000023  33.43000031  49.22999954
C     7.44000006  33.59999847  50.14999771
C     6.14000034  33.25000000  49.87999725
C     5.84999990  32.56000137  48.68000031
C     6.85999966  32.29000092  47.77999878
C     8.17000008  32.79999924  47.97999954
C    12.35000038  33.48999786  48.79000092
C    13.02000046  32.81999969  47.72999573
C    14.39000034  32.65000153  47.60000229
C     4.42000008  32.13000107  48.43000031
H     3.92860913  32.78518677  47.71072006
H     9.11000061  32.06999969  46.10000229
H    10.14000034  34.02000046  50.54000092
H     7.68000031  34.04999924  51.11000061
H     5.45000029  33.36000061  50.72000122
H     6.72999954  31.73000145  46.86000061
H    14.85000038  32.29999924  46.68000031
H     3.96000004  32.13999939  49.43000031
H     4.15999985  31.11000061  48.15000153
