96

S    15.21000004  34.27000046  56.84000015
C    17.86999893  34.29999924  56.20999908
C    16.61999893  33.87000275  55.84000015
C    16.26000023  33.31000137  54.58000183
C    17.28999901  33.08000183  53.68000031
C    18.60999870  33.41999817  54.03999710
C    19.63000107  33.23999786  53.06000137
C    20.92000008  33.54000092  53.41999817
C    21.25999832  34.08000183  54.68999863
C    20.28000069  34.33000183  55.63000107
C    18.93000031  34.04999924  55.30000305
C    14.81999969  33.22999954  54.38999939
C    14.14000034  33.69999695  55.54000092
C    12.75000000  33.72000122  55.61000061
C    22.67999840  34.50999832  54.98000336
H    23.19960022  33.94769287  55.75584412
H    18.05999947  34.77999878  57.16999817
H    17.10000038  32.83000183  52.63999939
H    19.45999908  32.70000076  52.12999725
H    21.68000031  33.45000076  52.64999771
H    20.68000031  34.69000244  56.56999969
H    12.15000057  34.31000137  56.30000305
H    23.29000092  34.61000061  54.06999969
H    22.57999802  35.51000214  55.40000153
S    11.61000061  32.34999847  52.08000183
C     8.89999962  32.29000092  52.71999741
C    10.18000031  32.61000061  53.09999847
C    10.55999947  33.11000061  54.38999939
C     9.50000000  33.41999817  55.22999573
C     8.19000053  32.95999908  54.95999908
C     7.11999989  33.02000046  55.89000320
C     5.80999947  32.68000031  55.66999817
C     5.53999996  32.11999893  54.38999939
C     6.51999998  31.97999954  53.43999863
C     7.86999989  32.36999893  53.68000031
C    12.00000000  33.25000000  54.52999878
C    12.71999931  32.79999924  53.40000153
C    14.09999943  32.72999954  53.29999924
C     4.17000008  31.56999969  54.08000183
H     3.50970411  32.12379456  53.41260529
H     8.64000034  31.81999969  51.77000046
H     9.63000011  33.70999908  56.26999664
H     7.27999973  33.31000137  56.93000031
H     5.05999994  32.81999969  56.44000244
H     6.26999950  31.42999840  52.52999878
H    14.60000038  32.49000168  52.36999893
H     3.73000002  31.45000076  55.07999802
H     4.33999968  30.62999916  53.53000259
S    15.65999985  34.77999878  50.93000031
C    18.35000038  34.71999741  50.27999878
C    17.06999969  34.36000061  49.93999863
C    16.72000122  33.65999985  48.74000168
C    17.76000023  33.39999771  47.87000275
C    19.11000061  33.70999908  48.18000031
C    20.22999954  33.55999756  47.30999756
C    21.51000023  33.87000275  47.69000244
C    21.76000214  34.43000031  48.97999573
C    20.76000023  34.48999786  49.91000366
C    19.43000031  34.27999878  49.45999908
C    15.27999973  33.48999786  48.62999725
C    14.57999992  34.09000015  49.69999695
C    13.22000027  34.38000107  49.66999817
C    23.11000061  35.00999832  49.34000015
H    23.70868683  34.28302002  49.88879776
H    18.63000107  35.20999908  51.20999908
H    17.53000069  33.09999847  46.84999847
H    19.97999954  33.18000031  46.31999969
H    22.27000046  33.77999878  46.91999817
H    20.95000076  34.88999939  50.90999985
H    12.71000004  34.86000061  50.50000000
H    23.57000160  35.45000076  48.44999695
H    22.86000061  35.88999939  49.94999695
S    12.03999996  32.65000153  46.31999969
C     9.36999989  32.59000015  47.01000214
C    10.64000034  33.02000046  47.34000397
C    11.02000046  33.65999985  48.56999969
C     9.98999977  33.93000031  49.45000076
C     8.65999985  33.52999878  49.15999985
C     7.63000011  33.65000153  50.13000107
C     6.38000011  33.11999893  49.92000198
C     6.05999994  32.45999908  48.69999695
C     7.05999947  32.26000214  47.77999878
C     8.32999992  32.90000153  47.90999985
C    12.46000099  33.77999878  48.64999771
C    13.17999935  33.16999817  47.58999634
C    14.55999947  33.01000214  47.52999878
C     4.67999983  31.86000061  48.60000229
H     4.16662025  32.23790359  47.71584702
H     9.21000004  31.90999985  46.17000198
H    10.19000053  34.45999908  50.38000107
H     7.86000013  34.20999908  51.04000092
H     5.65999985  33.22999954  50.72000122
H     6.96000004  31.45000076  47.05999756
H    15.10000038  32.50000000  46.73999786
H     4.02999973  32.07999802  49.45999908
H     4.67999983  30.76999855  48.47000122
