96

S    15.19000053  34.17000198  56.93000031
C    17.80999947  34.31999969  56.29000092
C    16.60000038  33.79000092  55.90999985
C    16.31999969  33.32999802  54.58000183
C    17.38000107  33.16999817  53.69999695
C    18.60000038  33.80000305  54.03999710
C    19.77000046  33.67000198  53.22999954
C    21.04999924  34.03000259  53.57999802
C    21.24000168  34.65999985  54.82999802
C    20.19000053  34.70000076  55.72999954
C    18.89000130  34.24000168  55.38000107
C    14.88000011  33.36999893  54.36000061
C    14.18000031  33.81000137  55.51000214
C    12.79000092  33.88000107  55.52000046
C    22.57999802  35.22999954  55.20999908
H    23.09097862  34.67643738  55.99776077
H    17.92000008  34.90000153  57.19999695
H    17.26000023  32.62000275  52.77999878
H    19.57999992  33.31999969  52.22000122
H    21.86000061  33.90999985  52.85999680
H    20.27000046  35.06999969  56.75000000
H    12.30999947  34.13000107  56.45999908
H    23.15999985  35.22000122  54.27999878
H    22.50999832  36.27999878  55.54000092
S    11.65999985  32.63000107  51.90999985
C     9.01000023  32.57999802  52.60000229
C    10.27999973  32.95999908  52.97000122
C    10.59000015  33.43000031  54.27999878
C     9.55999947  33.75000000  55.14999771
C     8.23999977  33.36999893  54.80999756
C     7.20000029  33.34000015  55.77999878
C     5.93999958  32.92000198  55.41999817
C     5.63000011  32.52000046  54.09000015
C     6.63000011  32.42000198  53.15000153
C     7.95000029  32.79999924  53.52000427
C    12.03999996  33.51000214  54.40000153
C    12.74000072  33.13999939  53.22000122
C    14.11999893  33.02000046  53.23999786
C     4.30000019  31.87999916  53.81000137
H     3.83256221  32.45367432  53.00968933
H     8.82000065  32.20000076  51.59999847
H     9.77999973  34.09000015  56.14999771
H     7.63999987  33.58000183  56.75000000
H     5.19999981  32.81999969  56.20999908
H     6.54999971  32.00000000  52.15000153
H    14.57999992  32.62000275  52.35000229
H     3.65000010  31.88999939  54.68999863
H     4.55999994  30.85000038  53.50999832
S    16.05999947  34.71999741  51.07999802
C    18.72999954  34.73999786  50.38999939
C    17.46000099  34.33000183  50.06999969
C    17.13999939  33.70999908  48.81999969
C    18.18000031  33.47999954  47.93000031
C    19.48999977  33.91999817  48.20999908
C    20.55000114  33.59999847  47.30999756
C    21.83000183  33.95999908  47.67000198
C    22.09000015  34.76000214  48.81999969
C    21.07000160  35.16999817  49.64000320
C    19.77000046  34.61999893  49.43999863
C    15.70000076  33.59999847  48.72000122
C    14.96000099  34.11999893  49.81999969
C    13.57999992  34.29000092  49.81999969
C    23.48999977  35.18000031  49.20999908
H    23.90413094  34.56594086  50.00970459
H    18.89999962  35.25000000  51.33999634
H    18.11000061  32.86999893  47.02999878
H    20.46999931  33.11000061  46.35000229
H    22.65999985  33.61000061  47.06999969
H    21.19999886  35.75000000  50.54999924
H    13.02000046  34.48999786  50.72999954
H    24.17000008  35.15999985  48.34000015
H    23.40999985  36.24000168  49.47000122
S    12.53000069  33.00000000  46.18000031
C     9.80000019  33.15000153  46.68000031
C    11.07999992  33.45000076  47.09999847
C    11.46999931  33.95999908  48.37999725
C    10.46000004  34.40000153  49.20999908
C     9.13999939  33.97999954  48.89999771
C     8.10000038  34.04999924  49.86000061
C     6.85999966  33.45999908  49.72000122
C     6.57999992  32.80999756  48.48999786
C     7.48000050  32.83000183  47.44999695
C     8.78999996  33.34999847  47.65999603
C    12.89999962  33.90999985  48.66000366
C    13.60999966  33.46999741  47.50999832
C    14.98999977  33.38000107  47.52999878
C     5.22000027  32.20000076  48.27000046
H     4.68706226  32.76136398  47.50257111
H     9.63000011  32.56000137  45.79000092
H    10.65999985  34.71999741  50.22999573
H     8.22000027  34.57999802  50.79999924
H     6.10000038  33.51000214  50.48999786
H     7.23999977  32.34999847  46.50000000
H    15.59999943  32.92000198  46.75000000
H     4.63000011  32.33000183  49.19000244
H     5.23999977  31.09999847  48.20999908
