96

S    15.06000042  33.97000122  56.95000076
C    17.69000053  34.02000046  56.20999908
C    16.43000031  33.58000183  55.90000153
C    16.03000069  32.95000076  54.66999817
C    17.00000000  32.90000153  53.68999863
C    18.34000015  33.23999786  53.96999741
C    19.37000084  33.11999893  52.98999786
C    20.65000153  33.43000031  53.36999893
C    20.98999977  33.95000076  54.65000153
C    20.03000069  34.17000198  55.61000061
C    18.70000076  33.84999847  55.21999741
C    14.57999992  32.86999893  54.58000183
C    13.92000008  33.36000061  55.72999954
C    12.56000042  33.65000153  55.68999863
C    22.39000130  34.45999908  54.89999771
H    22.93920898  33.88939285  55.64891815
H    17.88999939  34.41999817  57.19999695
H    16.67000008  32.56999969  52.70000076
H    19.10000038  32.80999756  51.97999954
H    21.38999939  33.36999893  52.56999969
H    20.31999969  34.54999924  56.58000183
H    12.05000019  33.90999985  56.60999680
H    22.93000031  34.36000061  53.94000244
H    22.39999962  35.51000214  55.20999908
S    11.28999901  32.09999847  52.29999924
C     8.67999935  31.97999954  53.15999985
C     9.94000053  32.47999954  53.39000320
C    10.26999950  33.06000137  54.65999985
C     9.26000023  33.29000092  55.56999969
C     7.96000004  32.77000046  55.33000183
C     6.89000034  32.92000198  56.25999832
C     5.59000015  32.54000092  56.03000259
C     5.33999968  31.78999901  54.85000229
C     6.32999992  31.56999969  53.90999603
C     7.64999962  32.04000092  54.13000107
C    11.72000027  33.23999786  54.65000153
C    12.41000080  32.70000076  53.54000092
C    13.78999901  32.54000092  53.46000290
C     4.01999998  31.07999992  54.65999985
H     3.36380267  31.74332809  54.09652710
H     8.43999958  31.47999954  52.22999954
H     9.43000031  33.77999878  56.52000046
H     7.20000029  33.27999878  57.22999954
H     4.86000013  32.57999802  56.83000183
H     6.11000013  30.89999962  53.08000183
H    14.27999973  32.19000244  52.56000137
H     3.77999997  30.86000061  55.70999908
H     4.30000019  30.10999870  54.20999908
S    15.21999931  34.52999878  50.97000122
C    17.93000031  34.43000031  50.21999741
C    16.62999916  34.03000259  50.01999664
C    16.23999977  33.45000076  48.76999664
C    17.27000046  33.11999893  47.90000153
C    18.63000107  33.43000031  48.13999939
C    19.65999985  33.08000183  47.22000122
C    20.95000076  33.51000214  47.43999863
C    21.31999969  34.20000076  48.62999725
C    20.34000015  34.61000061  49.48999786
C    19.00000000  34.15000153  49.33000183
C    14.80000019  33.31000137  48.68000031
C    14.09999943  33.93000031  49.73999786
C    12.71000004  34.01000214  49.86999893
C    22.73999977  34.64999771  48.88999939
H    23.18136024  34.18728256  49.77272034
H    18.12000084  34.86000061  51.19999695
H    17.04000092  32.37999725  47.12999725
H    19.36000061  32.66999817  46.25999832
H    21.70999908  33.44000244  46.66999817
H    20.62000084  35.16999817  50.38000107
H    12.18000031  34.64999771  50.56999969
H    23.50000000  34.56999969  48.09999847
H    22.65000153  35.70999908  49.16999817
S    11.54999924  32.13999939  46.52999878
C     8.84000015  32.20000076  47.37999725
C    10.15999985  32.55000305  47.55000305
C    10.52999973  33.29000092  48.70999908
C     9.61000061  33.52000046  49.72000122
C     8.23000050  33.34999847  49.51000214
C     7.17999983  33.61000061  50.45000076
C     5.88000011  33.20999908  50.27000046
C     5.60999966  32.38999939  49.15000153
C     6.53999996  32.11999893  48.15999985
C     7.88000011  32.55000305  48.36999893
C    11.97999954  33.38999939  48.86000061
C    12.64999962  32.86999893  47.71999741
C    14.02999973  32.79000092  47.62000275
C     4.15000010  32.04999924  48.96999741
H     3.78767109  32.45495605  48.02510071
H     8.52999973  31.51000023  46.59999847
H    10.01000023  33.81000137  50.68999863
H     7.48000050  34.11000061  51.37000275
H     5.13999987  33.27000046  51.05999756
H     6.26999950  31.68000031  47.21000290
H    14.50000000  32.43999863  46.70999908
H     3.63999987  32.40000153  49.87999725
H     3.98000002  30.96999931  48.95000076
