96

S    15.70000076  33.90999985  57.06999969
C    18.34000015  34.31000137  56.25000000
C    17.07999992  33.84000015  55.96000290
C    16.65999985  33.39999771  54.65999985
C    17.68000031  33.34999847  53.72000122
C    19.03000069  33.68999863  53.97999573
C    20.15999985  33.29999924  53.20999908
C    21.44000053  33.65000153  53.54000092
C    21.71999931  34.43000031  54.68999863
C    20.68000031  34.69000244  55.56000137
C    19.36000061  34.27000046  55.26000214
C    15.22999954  33.25000000  54.47999954
C    14.60000038  33.61000061  55.70000076
C    13.22000027  33.72000122  55.83000183
C    23.12000084  34.79999924  55.12000275
H    23.48144722  34.04166794  55.81454849
H    18.55999947  34.80999756  57.18999863
H    17.60000038  32.81999969  52.77999878
H    19.98999977  32.69000244  52.31999969
H    22.25000000  33.36000061  52.85999680
H    20.81000137  35.18000031  56.52000046
H    12.76000023  33.72999954  56.81999969
H    23.75999832  34.90999985  54.22999954
H    23.11000061  35.72999954  55.68999863
S    11.87999916  32.45999908  52.30999756
C     9.25000000  32.26000214  53.13999939
C    10.52000046  32.70000076  53.41999817
C    10.97000027  33.18999863  54.68999863
C    10.00000000  33.32999802  55.66999817
C     8.69000053  32.86999893  55.40999985
C     7.59000015  33.13000107  56.27999878
C     6.28999996  32.73999786  56.04000092
C     5.89999962  32.13999939  54.81999969
C     6.93000031  31.87000084  53.95000076
C     8.28999996  32.23999786  54.18000031
C    12.41000080  33.38999939  54.73999786
C    13.04999924  33.00000000  53.54000092
C    14.42999935  32.88000107  53.39000320
C     4.48999977  31.70000076  54.47000122
H     4.11255550  32.40504074  53.72935486
H     8.82000065  31.94000053  52.18999863
H    10.15999985  33.77000046  56.65000153
H     7.75000000  33.68999863  57.18999863
H     5.59000015  33.02999878  56.81999969
H     6.61999989  31.59000015  52.94000244
H    14.88999939  32.50999832  52.49000168
H     3.94000006  31.81999969  55.40999985
H     4.55999994  30.65999985  54.13999939
S    12.05999947  30.68000031  49.38999939
C     9.36999989  30.22000122  50.11000061
C    10.71000004  30.05000114  50.34999847
C    11.13000011  29.21999931  51.44000244
C    10.21999931  28.61999893  52.29000092
C     8.84000015  28.85999870  52.04999924
C     7.86999989  28.26000023  52.90000153
C     6.51999998  28.44000053  52.70000076
C     6.07999992  29.17000008  51.56000137
C     6.98000002  29.73999977  50.68000031
C     8.36999989  29.61999893  50.93000031
C    12.56999969  29.34999847  51.66999817
C    13.19000053  30.03999901  50.59999847
C    14.52000046  30.45999908  50.59000015
C     4.61999989  29.43000031  51.29000092
H     4.27139854  29.08851242  50.31534195
H     9.09000015  30.85000038  49.27000046
H    10.50000000  27.90999985  53.06000137
H     8.31999969  27.65999985  53.68000031
H     5.86999989  27.96999931  53.43999863
H     6.63999987  30.32999992  49.82999802
H    14.85000038  31.28999901  49.97000122
H     4.05999994  29.04999924  52.15000153
H     4.53999996  30.52000046  51.31000137
S    15.95999908  29.03000069  53.99000168
C    18.63000107  29.60000038  53.36000061
C    17.28999901  29.75000000  53.06000137
C    16.76000023  30.28000069  51.84000015
C    17.67000008  30.86000061  50.97999954
C    19.06999969  30.76999855  51.19999695
C    20.03999901  31.18999863  50.25000000
C    21.38999939  31.18000031  50.52000046
C    21.83000183  30.48999977  51.69000244
C    20.94000053  30.00999832  52.61000061
C    19.52999878  30.13999939  52.41000366
C    15.34000015  30.03000069  51.63999939
C    14.75999928  29.31999969  52.71999741
C    13.43000031  28.90999985  52.68000031
C    23.28000069  30.07999802  51.70999908
H    23.70018387  30.29365158  52.69279861
H    19.07999992  28.92999840  54.09000015
H    17.26000023  31.25000000  50.05000305
H    19.60000038  31.51000023  49.31000137
H    22.06000137  31.38000107  49.68999863
H    21.31999969  29.37999916  53.40999985
H    13.02000046  28.25000000  53.43999863
H    23.78999901  30.58000183  50.86999893
H    23.26999855  29.00000000  51.55000305
