96

S    15.06000042  33.86000061  56.84999847
C    17.71999931  34.01000214  56.18999863
C    16.47999954  33.52000046  55.84999847
C    16.14999962  32.90999985  54.59999847
C    17.13000107  32.88000107  53.62999725
C    18.39999962  33.44000244  53.88000107
C    19.48999977  33.29000092  52.97000122
C    20.76999855  33.65999985  53.29999924
C    21.05999947  34.27999878  54.54999924
C    20.05000114  34.36000061  55.47999954
C    18.72999954  33.93000031  55.19000244
C    14.70000076  32.76000214  54.45999908
C    13.97999954  33.31999969  55.54999924
C    12.61000061  33.52999878  55.59000015
C    22.42000198  34.79000092  54.95999908
H    22.86529160  34.06905365  55.64560318
H    17.81999969  34.63000107  57.08000183
H    16.84999847  32.56000137  52.63000107
H    19.22999954  32.54000092  52.22999954
H    21.53000069  33.36000061  52.57999802
H    20.12000084  34.84999847  56.45000076
H    12.23999977  34.17000198  56.39999771
H    22.93000031  34.71999741  53.99000168
H    22.50000000  35.81999969  55.33000183
S    11.39000034  31.90000153  52.18000031
C     8.69000053  32.09000015  52.87000275
C    10.00000000  32.34000015  53.18999863
C    10.39000034  32.97000122  54.41999817
C     9.42000008  33.25999832  55.35999680
C     8.05999947  33.00000000  55.08999634
C     7.00000000  33.15999985  56.03000259
C     5.66999960  32.97999954  55.75000000
C     5.32000017  32.38999939  54.51000214
C     6.34000015  32.02000046  53.66000366
C     7.69999981  32.40000153  53.82999802
C    11.84000015  33.06999969  54.52999878
C    12.51000023  32.50999832  53.40999985
C    13.89999962  32.47999954  53.34999847
C     3.86000013  32.09999847  54.22000122
H     3.39745140  32.66217422  53.40876389
H     8.47000027  31.54000092  51.95000076
H     9.67000008  33.72999954  56.31000137
H     7.21000004  33.48999786  57.04999924
H     4.88000011  33.08000183  56.49000168
H     6.17000008  31.50000000  52.71999741
H    14.42000008  32.29999924  52.41000366
H     3.31999993  32.07999802  55.17000198
H     3.82999992  31.02999878  53.97999573
S    11.90000057  30.06999969  49.43999863
C     9.22999954  29.47000122  50.06000137
C    10.57000065  29.34999847  50.35999680
C    10.98999977  28.67000198  51.55000305
C    10.03999901  28.15000153  52.39999771
C     8.64999962  28.25000000  52.11999893
C     7.62000036  27.93000031  53.04999924
C     6.28999996  28.01000214  52.71999741
C     5.86999989  28.57000160  51.49000168
C     6.85999966  28.88999939  50.59000015
C     8.26000023  28.81000137  50.84999847
C    12.41000080  28.90000153  51.79999924
C    12.98999977  29.70999908  50.79999924
C    14.28999996  30.20000076  50.79999924
C     4.42999983  29.00000000  51.32999802
H     3.98255897  28.76562691  50.36409760
H     8.90999985  29.97999954  49.15999985
H    10.36999893  27.89999962  53.40999985
H     7.92000008  27.36000061  53.93000031
H     5.51999998  27.72000122  53.43000031
H     6.57999992  29.41999817  49.68999863
H    14.77000046  30.68000031  49.94999695
H     3.91999984  28.50000000  52.16999817
H     4.42999983  30.09000015  51.43000031
S    15.73999977  28.55999947  54.09999847
C    18.40999985  29.10000038  53.30999756
C    17.05000114  29.27000046  53.13999939
C    16.54000092  29.84000015  51.93000031
C    17.36999893  30.32999992  50.94999695
C    18.77000046  30.28000069  51.17000198
C    19.64999962  30.88000107  50.21999741
C    21.00000000  30.92000008  50.50000000
C    21.53000069  30.27000046  51.63999939
C    20.69999886  29.63999939  52.54000092
C    19.29000092  29.68000031  52.36999893
C    15.07999992  29.76000023  51.86999893
C    14.51000023  28.95999908  52.88999939
C    13.17999935  28.55999947  52.91999817
C    23.02000046  30.23999977  51.88000107
H    23.40474701  30.11175156  52.89174271
H    18.78000069  28.40999985  54.06999969
H    17.01000023  30.76000023  50.01999664
H    19.19999886  31.40000153  49.38999939
H    21.64999962  31.38000107  49.75999832
H    21.19999886  28.98999977  53.26000214
H    12.81999969  27.98000145  53.75999832
H    23.44000053  31.14000130  51.42000198
H    23.45999908  29.46000099  51.25000000
