96

S    15.14000034  33.75000000  57.04000092
C    17.85000038  33.62999725  56.30000305
C    16.53000069  33.38000107  56.00999832
C    16.13999939  32.68000031  54.81999969
C    17.18000031  32.33000183  53.97999573
C    18.53999901  32.66999817  54.15999985
C    19.60000038  32.62000275  53.20999908
C    20.86999893  33.06999969  53.47000122
C    21.25000000  33.31999969  54.80999756
C    20.27000046  33.52000046  55.75000000
C    18.89999962  33.29000092  55.40999985
C    14.70000076  32.59999847  54.65000153
C    14.04000092  33.22000122  55.75000000
C    12.67000008  33.44000244  55.77999878
C    22.65000153  33.77000046  55.18000031
H    23.03539085  33.36320114  56.11492920
H    18.15000153  34.02000046  57.27000427
H    16.72999954  32.13999939  53.01000214
H    19.45000076  32.23999786  52.19999695
H    21.70000076  32.97999954  52.77000046
H    20.51000214  34.11000061  56.63000107
H    12.15999985  33.81999969  56.65999985
H    23.38000107  33.59000015  54.38000107
H    22.69000053  34.84000015  55.44000244
S    11.43000031  31.81999969  52.32999802
C     8.73999977  32.07999802  53.11000061
C    10.06999969  32.27999878  53.36999893
C    10.51000023  32.90999985  54.59000015
C     9.53999996  33.20000076  55.52999878
C     8.18000031  32.83000183  55.34000015
C     7.16000032  32.92000198  56.32999802
C     5.88000011  32.47999954  56.09000397
C     5.42000008  32.14999771  54.79000092
C     6.35999966  32.04000092  53.80000305
C     7.72000027  32.34000015  54.06999969
C    11.96000004  32.90999985  54.69999695
C    12.58999920  32.40999985  53.54000092
C    13.97999954  32.30999756  53.47999954
C     4.00000000  31.65999985  54.55999756
H     3.38257766  32.29871368  53.92838669
H     8.51000023  31.61999893  52.15000153
H     9.84000015  33.46999741  56.53999710
H     7.50999975  33.32999802  57.27000427
H     5.19000006  32.44999695  56.93000031
H     6.15000010  31.48999977  52.88000107
H    14.47000027  31.97000122  52.56999969
H     3.55999994  31.38000107  55.52000046
H     4.03999996  30.69000053  54.03999710
S    11.87000084  29.82000160  49.47000122
C     9.17000008  29.51999855  50.11000061
C    10.47999954  29.23999977  50.41999817
C    10.90999985  28.75999832  51.70000076
C     9.90999985  28.29999924  52.52999878
C     8.53999996  28.55999947  52.29000092
C     7.48000050  28.19999886  53.16999817
C     6.17000008  28.45000076  52.85999680
C     5.75999975  29.04000092  51.63000107
C     6.77999973  29.28999901  50.73999786
C     8.15999985  29.09000015  51.00999832
C    12.35999966  28.75999832  51.81000137
C    13.04999924  29.34999847  50.72000122
C    14.40000057  29.70000076  50.72999954
C     4.30999994  29.34999847  51.35000229
H     3.98928213  28.76557922  50.48762512
H     8.76000023  30.00000000  49.22999954
H    10.15999985  27.79999924  53.46000290
H     7.77999973  27.72000122  54.09999847
H     5.40999985  28.22000122  53.60000229
H     6.61000013  29.82000160  49.80999756
H    14.80999947  30.17999840  49.85000229
H     3.60000014  29.20999908  52.18000031
H     4.35999966  30.42000008  51.12999725
S    15.62000084  28.51000023  54.29999924
C    18.35000038  28.88999939  53.62999725
C    17.02000046  29.11000061  53.39000320
C    16.59000015  29.56000137  52.09999847
C    17.50000000  30.10000038  51.20999908
C    18.88000107  29.96999931  51.51000214
C    19.82999992  30.45999908  50.56999969
C    21.18000031  30.42000008  50.83000183
C    21.61999893  29.72999954  51.98999786
C    20.75000000  29.30000114  52.95999908
C    19.34000015  29.37000084  52.72999573
C    15.15999985  29.37999916  51.86000061
C    14.47999954  28.78999901  52.95999908
C    13.12999916  28.46999931  52.94000244
C    23.09999847  29.61000061  52.30999756
H    23.44161797  30.15089417  53.19251251
H    18.70000076  28.28000069  54.45999908
H    17.21999931  30.52000046  50.25000000
H    19.40000153  30.84000015  49.64000320
H    21.80000114  30.85000038  50.05000305
H    21.07000160  28.88000107  53.90999603
H    12.72999954  27.90999985  53.77999878
H    23.44000053  29.77999878  51.27999878
H    23.29999924  28.54999924  52.49000168
