96

S    15.14999962  33.65000153  56.90000153
C    17.77000046  33.59999847  56.18999863
C    16.50000000  33.20999908  55.83000183
C    16.03999901  32.70999908  54.56999969
C    17.05999947  32.45999908  53.67000198
C    18.37000084  32.90000153  53.95000076
C    19.34999847  32.79999924  52.91999817
C    20.65999985  33.11999893  53.15999985
C    21.07000160  33.68000031  54.38999939
C    20.13999939  33.87000275  55.38000107
C    18.78000069  33.48999786  55.20000076
C    14.57999992  32.72999954  54.50000000
C    13.94000053  33.15999985  55.68999863
C    12.56999969  33.34999847  55.76000214
C    22.50999832  34.11999893  54.52999878
H    23.01675987  33.54900360  55.30797958
H    17.92000008  34.15000153  57.11000061
H    16.79999924  32.16999817  52.65999603
H    19.00000000  32.47000122  51.93999863
H    21.38000107  32.90000153  52.36999893
H    20.45000076  34.38000107  56.29000092
H    12.10000038  33.67000198  56.68000031
H    23.01000214  34.03000259  53.54999924
H    22.57999802  35.20000076  54.75000000
S    11.30000019  31.98999786  52.18999863
C     8.69999981  31.87999916  52.97999954
C     9.96999931  32.23999786  53.34999847
C    10.36000061  32.88999939  54.55999756
C     9.35999966  33.11000061  55.48999786
C     8.05000019  32.66999817  55.20000076
C     7.03000021  32.88999939  56.17000198
C     5.73000002  32.52999878  55.93999863
C     5.36999989  31.97000122  54.68999863
C     6.30999994  31.76000214  53.72000122
C     7.68000031  32.07999802  53.94000244
C    11.80999947  33.04000092  54.61999893
C    12.42000008  32.52000046  53.44999695
C    13.81000042  32.44999695  53.36999893
C     3.95000005  31.52000046  54.40000153
H     3.48724413  32.20345306  53.68806839
H     8.56999969  31.35000038  52.02999878
H     9.48000050  33.55999756  56.46999741
H     7.22000027  33.48999786  57.05999756
H     5.05000019  32.70000076  56.77999878
H     5.95000029  31.45999908  52.72999573
H    14.29999924  32.20000076  52.43000031
H     3.25999999  31.55999947  55.25000000
H     3.96000004  30.52000046  53.95000076
S    15.38000011  34.25000000  51.18000031
C    18.05999947  34.34999847  50.31999969
C    16.76000023  33.97000122  50.10000229
C    16.36000061  33.31999969  48.88000107
C    17.35000038  33.08000183  47.95000076
C    18.67000008  33.56999969  48.09999847
C    19.70999908  33.31999969  47.15999985
C    21.02000046  33.68000031  47.36999893
C    21.44000053  34.20000076  48.62999725
C    20.45000076  34.45999908  49.54000092
C    19.06999969  34.15999985  49.34999847
C    14.91000080  33.18999863  48.83999634
C    14.21000004  33.69999695  49.95999908
C    12.81999969  33.69999695  50.00000000
C    22.89999962  34.45000076  48.93000031
H    23.44077873  33.88787460  49.69136047
H    18.27999878  34.77000046  51.30000305
H    17.25000000  32.55000305  47.01000214
H    19.44000053  32.70000076  46.31000137
H    21.71999931  33.27999878  46.63999939
H    20.65999985  34.87999725  50.52000046
H    12.32999992  33.95000076  50.93000031
H    23.36999893  34.27999878  47.95000076
H    23.02999878  35.50000000  49.22999954
S    11.75000000  32.43000031  46.40999603
C     9.04999924  32.23999786  47.11000061
C    10.32999992  32.62000275  47.44999695
C    10.60999966  33.16999817  48.75000000
C     9.57999992  33.32999802  49.65000153
C     8.27999973  32.86000061  49.34999847
C     7.21000004  33.02999878  50.27999878
C     5.95000029  32.55000305  49.99000168
C     5.75000000  31.80999947  48.80000305
C     6.71000004  31.70999908  47.83000183
C     8.00000000  32.27000046  48.06999969
C    12.03999996  33.36999893  48.88000107
C    12.77999973  33.02999878  47.71999741
C    14.17000008  32.88999939  47.69000244
C     4.36999989  31.27000046  48.47000122
H     3.90665150  31.86878967  47.68587112
H     8.84000015  31.70000076  46.18999863
H     9.84000015  33.77000046  50.61000061
H     7.48000050  33.50000000  51.22000122
H     5.13000011  32.55000305  50.70999908
H     6.42000008  31.35999870  46.84000015
H    14.55000019  32.57999802  46.72000122
H     3.84999990  31.40000153  49.43000031
H     4.42999983  30.20999908  48.18999863
